
 Fire Dynamics Simulator

 Current Date     : April 26, 2021  21:37:10
 Version          : FDS 6.6.0
 Revision         : FDS6.6.0-131-g88ae75a-HEAD
 Revision Date    : Wed Nov 1 16:03:29 2017 -0400
 Compiler         : Intel ifort 17.0.4.210
 Compilation Date : Wed 11/01/2017  09:03 PM

 MPI Enabled;    Number of MPI Processes:      17
 OpenMP Enabled; Number of OpenMP Threads:      1

 MPI version: 3.0
 MPI library version: Intel(R) MPI Library 5.1.3 for Windows* OS


 Job TITLE        : 
 Job ID string    : TEST_P


 Grid Dimensions, Mesh     1

   Cells in the X Direction            76
   Cells in the Y Direction            67
   Cells in the Z Direction            12


 Physical Dimensions, Mesh     1

   Length (m)                      19.000
   Width  (m)                      16.750
   Height (m)                       3.000
   Initial Time Step (s)            0.071

 Grid Dimensions, Mesh     2

   Cells in the X Direction            76
   Cells in the Y Direction            67
   Cells in the Z Direction            13


 Physical Dimensions, Mesh     2

   Length (m)                      19.000
   Width  (m)                      16.750
   Height (m)                       3.250
   Initial Time Step (s)            0.071

 Grid Dimensions, Mesh     3

   Cells in the X Direction            20
   Cells in the Y Direction            87
   Cells in the Z Direction            46


 Physical Dimensions, Mesh     3

   Length (m)                       5.000
   Width  (m)                      21.750
   Height (m)                      11.500
   Initial Time Step (s)            0.071

 Grid Dimensions, Mesh     4

   Cells in the X Direction            20
   Cells in the Y Direction            81
   Cells in the Z Direction            46


 Physical Dimensions, Mesh     4

   Length (m)                       5.000
   Width  (m)                      20.250
   Height (m)                      11.500
   Initial Time Step (s)            0.071

 Grid Dimensions, Mesh     5

   Cells in the X Direction            18
   Cells in the Y Direction            87
   Cells in the Z Direction            46


 Physical Dimensions, Mesh     5

   Length (m)                       4.500
   Width  (m)                      21.750
   Height (m)                      11.500
   Initial Time Step (s)            0.071

 Grid Dimensions, Mesh     6

   Cells in the X Direction            18
   Cells in the Y Direction            81
   Cells in the Z Direction            46


 Physical Dimensions, Mesh     6

   Length (m)                       4.500
   Width  (m)                      20.250
   Height (m)                      11.500
   Initial Time Step (s)            0.071

 Grid Dimensions, Mesh     7

   Cells in the X Direction            18
   Cells in the Y Direction            87
   Cells in the Z Direction            46


 Physical Dimensions, Mesh     7

   Length (m)                       4.500
   Width  (m)                      21.750
   Height (m)                      11.500
   Initial Time Step (s)            0.071

 Grid Dimensions, Mesh     8

   Cells in the X Direction            18
   Cells in the Y Direction            81
   Cells in the Z Direction            46


 Physical Dimensions, Mesh     8

   Length (m)                       4.500
   Width  (m)                      20.250
   Height (m)                      11.500
   Initial Time Step (s)            0.071

 Grid Dimensions, Mesh     9

   Cells in the X Direction            20
   Cells in the Y Direction            87
   Cells in the Z Direction            46


 Physical Dimensions, Mesh     9

   Length (m)                       5.000
   Width  (m)                      21.750
   Height (m)                      11.500
   Initial Time Step (s)            0.071

 Grid Dimensions, Mesh    10

   Cells in the X Direction            20
   Cells in the Y Direction            81
   Cells in the Z Direction            46


 Physical Dimensions, Mesh    10

   Length (m)                       5.000
   Width  (m)                      20.250
   Height (m)                      11.500
   Initial Time Step (s)            0.071

 Grid Dimensions, Mesh    11

   Cells in the X Direction            48
   Cells in the Y Direction            54
   Cells in the Z Direction            21


 Physical Dimensions, Mesh    11

   Length (m)                      12.000
   Width  (m)                      13.500
   Height (m)                       5.250
   Initial Time Step (s)            0.071

 Grid Dimensions, Mesh    12

   Cells in the X Direction            28
   Cells in the Y Direction            67
   Cells in the Z Direction            21


 Physical Dimensions, Mesh    12

   Length (m)                       7.000
   Width  (m)                      16.750
   Height (m)                       5.250
   Initial Time Step (s)            0.071

 Grid Dimensions, Mesh    13

   Cells in the X Direction            39
   Cells in the Y Direction            31
   Cells in the Z Direction            31


 Physical Dimensions, Mesh    13

   Length (m)                       9.750
   Width  (m)                       7.750
   Height (m)                       7.750
   Initial Time Step (s)            0.071

 Grid Dimensions, Mesh    14

   Cells in the X Direction            39
   Cells in the Y Direction            36
   Cells in the Z Direction            31


 Physical Dimensions, Mesh    14

   Length (m)                       9.750
   Width  (m)                       9.000
   Height (m)                       7.750
   Initial Time Step (s)            0.071

 Grid Dimensions, Mesh    15

   Cells in the X Direction            37
   Cells in the Y Direction            31
   Cells in the Z Direction            31


 Physical Dimensions, Mesh    15

   Length (m)                       9.250
   Width  (m)                       7.750
   Height (m)                       7.750
   Initial Time Step (s)            0.071

 Grid Dimensions, Mesh    16

   Cells in the X Direction            37
   Cells in the Y Direction            36
   Cells in the Z Direction            31


 Physical Dimensions, Mesh    16

   Length (m)                       9.250
   Width  (m)                       9.000
   Height (m)                       7.750
   Initial Time Step (s)            0.071

 Grid Dimensions, Mesh    17

   Cells in the X Direction            48
   Cells in the Y Direction            13
   Cells in the Z Direction            21


 Physical Dimensions, Mesh    17

   Length (m)                      12.000
   Width  (m)                       3.250
   Height (m)                       5.250
   Initial Time Step (s)            0.071


 Miscellaneous Parameters

   Simulation Start Time (s)          0.0
   Simulation End Time (s)          100.0
   LES Calculation
   Eddy Viscosity:           Deardorff Model (C_DEARDORFF)                          0.10
   Near-wall Eddy Viscosity: Smagorinsky with Van Driest damping (C_SMAGORINSKY)    0.20
   Turbulent Prandtl Number          0.50
   Turbulent Schmidt Number          0.50
   Ambient Temperature (C)          20.00


 Mass Fraction Transformation Matrix to Convert Species Mixtures (Columns) to Primitive Species (Rows)

                         AIR       REAC_FUE  PRODUCTS
   REAC_FUEL             0.000000  1.000000  0.000000
   NITROGEN              0.763077  0.000000  0.715397
   OXYGEN                0.231181  0.000000  0.000000
   CARBON DIOXIDE        0.000592  0.000000  0.188668
   CARBON MONOXIDE       0.000000  0.000000  0.000375
   WATER VAPOR           0.005149  0.000000  0.094622
   SOOT                  0.000000  0.000000  0.000937


 Primitive Species Information

   REAC_FUEL
   Gas Species
   Molecular Weight (g/mol)           100.20194
   Ambient Density (kg/m^3)            4.166
   Enthalpy of Formation (J/kg)       -7.94E+05

   NITROGEN
   Gas Species
   Molecular Weight (g/mol)            28.01340
   Ambient Density (kg/m^3)            1.165
   Enthalpy of Formation (J/kg)        0.00E+00

   OXYGEN
   Gas Species
   Molecular Weight (g/mol)            31.99880
   Ambient Density (kg/m^3)            1.330
   Enthalpy of Formation (J/kg)        0.00E+00

   CARBON DIOXIDE
   Gas Species
   Molecular Weight (g/mol)            44.00950
   Ambient Density (kg/m^3)            1.830
   Enthalpy of Formation (J/kg)       -8.94E+06

   CARBON MONOXIDE
   Gas Species
   Molecular Weight (g/mol)            28.01010
   Ambient Density (kg/m^3)            1.164
   Enthalpy of Formation (J/kg)       -3.95E+06

   WATER VAPOR
   Gas Species
   Molecular Weight (g/mol)            18.01528
   Ambient Density (kg/m^3)            0.749
   Enthalpy of Formation (J/kg)       -1.34E+07

   SOOT
   Gas Species
   Molecular Weight (g/mol)            10.91042
   Ambient Density (kg/m^3)            0.454
   Enthalpy of Formation (J/kg)        0.00E+00


 Tracked (Lumped) Species Information

   AIR
   Molecular Weight (g/mol)            28.76564
   Ambient Density (kg/m^3)            1.196
   Initial Mass Fraction               1.000
   Enthalpy of Formation (J/kg)     -7.44E+04

   Sub Species                    Mass Fraction     Mole Fraction
   NITROGEN                       7.630774E-01      7.835682E-01
   OXYGEN                         2.311814E-01      2.078229E-01
   CARBON DIOXIDE                 5.919362E-04      3.869034E-04
   WATER VAPOR                    5.149269E-03      8.222023E-03
 
     Viscosity (kg/m/s) Ambient,  293 K:  1.80E-05
                                  500 K:  2.61E-05
                                 1000 K:  4.13E-05
                                 1500 K:  5.37E-05
   Therm. Cond. (W/m/K) Ambient,  293 K:  2.56E-02
                                  500 K:  3.81E-02
                                 1000 K:  6.68E-02
                                 1500 K:  9.24E-02
        Enthalpy (J/kg) Ambient,  293 K: -7.97E+04
                                  500 K:  1.33E+05
                                 1000 K:  6.82E+05
                                 1500 K:  1.28E+06
    Spec. Heat (J/kg/K) Ambient,  293 K:  1.02E+03
                                  500 K:  1.04E+03
                                 1000 K:  1.16E+03
                                 1500 K:  1.23E+03
   Diff. Coeff. (m^2/s) Ambient,  293 K:  1.99E-05
                                  500 K:  4.96E-05
                                 1000 K:  1.58E-04
                                 1500 K:  3.09E-04

   REAC_FUEL
   Molecular Weight (g/mol)           100.20194
   Ambient Density (kg/m^3)            4.166
   Initial Mass Fraction               0.000
   Enthalpy of Formation (J/kg)     -7.94E+05

   Sub Species                    Mass Fraction     Mole Fraction
   REAC_FUEL                      1.000000E+00      1.000000E+00
 
     Viscosity (kg/m/s) Ambient,  293 K:  3.29E-05
                                  500 K:  4.75E-05
                                 1000 K:  7.47E-05
                                 1500 K:  9.71E-05
   Therm. Cond. (W/m/K) Ambient,  293 K:  1.35E-02
                                  500 K:  1.94E-02
                                 1000 K:  3.05E-02
                                 1500 K:  3.97E-02
        Enthalpy (J/kg) Ambient,  293 K: -7.96E+05
                                  500 K: -7.35E+05
                                 1000 K: -5.90E+05
                                 1500 K: -4.45E+05
    Spec. Heat (J/kg/K) Ambient,  293 K:  2.90E+02
                                  500 K:  2.90E+02
                                 1000 K:  2.90E+02
                                 1500 K:  2.90E+02
   Diff. Coeff. (m^2/s) Ambient,  293 K:  1.59E-05
                                  500 K:  3.95E-05
                                 1000 K:  1.25E-04
                                 1500 K:  2.46E-04

   PRODUCTS
   Molecular Weight (g/mol)            28.42824
   Ambient Density (kg/m^3)            1.182
   Initial Mass Fraction               0.000
   Enthalpy of Formation (J/kg)     -2.96E+06

   Sub Species                    Mass Fraction     Mole Fraction
   NITROGEN                       7.153971E-01      7.259910E-01
   CARBON DIOXIDE                 1.886684E-01      1.218716E-01
   CARBON MONOXIDE                3.749055E-04      3.805021E-04
   WATER VAPOR                    9.462236E-02      1.493147E-01
   SOOT                           9.372638E-04      2.442137E-03
 
     Viscosity (kg/m/s) Ambient,  293 K:  1.62E-05
                                  500 K:  2.40E-05
                                 1000 K:  3.90E-05
                                 1500 K:  5.14E-05
   Therm. Cond. (W/m/K) Ambient,  293 K:  2.34E-02
                                  500 K:  3.62E-02
                                 1000 K:  6.69E-02
                                 1500 K:  9.58E-02
        Enthalpy (J/kg) Ambient,  293 K: -2.97E+06
                                  500 K: -2.74E+06
                                 1000 K: -2.13E+06
                                 1500 K: -1.46E+06
    Spec. Heat (J/kg/K) Ambient,  293 K:  1.08E+03
                                  500 K:  1.13E+03
                                 1000 K:  1.29E+03
                                 1500 K:  1.39E+03
   Diff. Coeff. (m^2/s) Ambient,  293 K:  1.95E-05
                                  500 K:  4.94E-05
                                 1000 K:  1.59E-04
                                 1500 K:  3.13E-04


 Gas Phase Reaction Information

   NIST NRC FDS5 Validation

   Reaction ID:  HEPTANE

   Fuel                                           Heat of Combustion (kJ/kg)
   REAC_FUEL                                                      45439.3621

   Stoichiometry

   Primitive Species Stoich. Coeff.
   Species ID                                                          Molar
   REAC_FUEL                                                       -1.000000
   NITROGEN                                                        -0.000000
   OXYGEN                                                         -10.861839
   CARBON DIOXIDE                                                   6.854551
   CARBON MONOXIDE                                                  0.021464
   WATER VAPOR                                                      7.993112
   SOOT                                                             0.137761

   Tracked (Lumped) Species Stoich. Coeff.
   Species ID                                             Molar         Mass
   AIR                                               -52.264893   -15.004033
   REAC_FUEL                                          -1.000000    -1.000000
   PRODUCTS                                           56.409942    16.004033

   Reaction Kinetics

   Arrhenius Parameters
   Pre-exponential:    Infinite
   Activation Energy:  N/A

   ODE Solver:  EXPLICIT EULER
   Extinction Model:  EXTINCTION 2
   Ignition Temperature (K):            0.0
   Critical Flame Temperature (K):   1700.2


 Material Information


 Surface Conditions

   0 INERT (DEFAULT)

   1 LEAK_ZONE_DSF

   2 OPEN
     Passive Vent to Atmosphere

   3 MIRROR
     Symmetry Plane

   4 INTERPOLATED

   5 PERIODIC

   6 HVAC

   7 MASSLESS TRACER

   8 DROPLET

   9 VEGETATION

  10 EVACUATION_OUTFLOW
     Normal Velocity (m/s)         0.000

  11 MASSLESS TARGET

  12 PERIODIC WIND


 Device Coordinates

     1 Coords:     8.75     7.25     3.75, Make: null, ID: Device, Quantity: PRESSURE
     2 Coords:     8.75     7.25    10.25, Make: null, ID: Device02, Quantity: PRESSURE
     3 Coords:     8.75     7.25    16.75, Make: null, ID: Device03, Quantity: PRESSURE
     4 Coords:     8.75     7.25    23.25, Make: null, ID: Device04, Quantity: PRESSURE
     5 Coords:     8.75     7.25     3.75, Make: null, ID: Device05, Quantity: PRESSURE ZONE


 Radiation Model Information

   Number of control angles  104
   Time step increment         3
   Angle increment             5
   Theta band N_phi   Solid angle
     1:        4  0.12
     2:       12  0.11
     3:       16  0.13
     4:       20  0.12
     5:       20  0.12
     6:       16  0.13
     7:       12  0.11
     8:        4  0.12
   Using gray gas absorption.
   Mean beam length  1.250 m
 
 

 Run Time Diagnostics

       Time Step       1   April 26, 2021  21:37:11
       Step Size:    0.713E-01 s, Total Time:       0.07 s
       Pressure Iterations:      1
       Maximum Velocity Error:  0.12E+00 on Mesh  13 at (  40   6   6)
       Maximum Pressure Error:  0.53E-01 on Mesh   3 at (   3   4  44)
       ---------------------------------------------------------------
       Mesh    1
       Max CFL number:  0.12E-01 at (  42,   6,  12)
       Max divergence:  0.16E-02 at (  16,   6,   5)
       Min divergence:  0.16E-02 at (  42,   6,  12)
       Max VN number:   0.41E-02 at (  60,  51,   7)
       Radiation Loss to Boundaries:        -0.019 kW
       Mesh    2
       Max CFL number:  0.13E-01 at (  61,   6,  13)
       Max divergence:  0.16E-02 at (  22,   6,   1)
       Min divergence:  0.16E-02 at (  41,   7,  13)
       Max VN number:   0.42E-02 at (   8,  48,   8)
       Radiation Loss to Boundaries:        -0.033 kW
       Mesh    3
       Max CFL number:  0.17E-01 at (  20,   4,  31)
       Max divergence:  0.16E-02 at (   9,   4,   5)
       Min divergence:  0.16E-02 at (   6,  68,   5)
       Max VN number:   0.40E-02 at (  17,  53,  14)
       Radiation Loss to Boundaries:        -0.144 kW
       Mesh    4
       Max CFL number:  0.68E-02 at (  19,  61,  27)
       Max divergence:  0.16E-02 at (  18,  52,  42)
       Min divergence:  0.16E-02 at (  10,  23,   5)
       Max VN number:   0.40E-02 at (   8,  13,  41)
       Radiation Loss to Boundaries:        -0.067 kW
       Mesh    5
       Max CFL number:  0.15E-01 at (  18,   4,  23)
       Max divergence:  0.16E-02 at (   5,  10,  43)
       Min divergence:  0.16E-02 at (  11,  83,   7)
       Max VN number:   0.42E-02 at (  17,  16,   8)
       Radiation Loss to Boundaries:        -0.061 kW
       Mesh    6
       Max CFL number:  0.60E-02 at (  17,  54,  26)
       Max divergence:  0.16E-02 at (   2,  74,  39)
       Min divergence:  0.16E-02 at (  18,  21,   2)
       Max VN number:   0.42E-02 at (   5,  62,  38)
       Radiation Loss to Boundaries:        -0.062 kW
       Mesh    7
       Max CFL number:  0.15E-01 at (   1,   4,  25)
       Max divergence:  0.16E-02 at (   4,  68,  43)
       Min divergence:  0.16E-02 at (   5,  61,   5)
       Max VN number:   0.39E-02 at (  13,  77,  10)
       Radiation Loss to Boundaries:        -0.065 kW
       Mesh    8
       Max CFL number:  0.60E-02 at (   4,   9,  14)
       Max divergence:  0.16E-02 at (  13,  20,  42)
       Min divergence: -0.12E-05 at (   2,  67,  16)
       Max VN number:   0.43E-02 at (   2,  55,  26)
       Radiation Loss to Boundaries:        -0.055 kW
       Mesh    9
       Max CFL number:  0.17E-01 at (   1,   4,  35)
       Max divergence:  0.16E-02 at (  15,   4,   5)
       Min divergence:  0.16E-02 at (  11,  49,   7)
       Max VN number:   0.41E-02 at (  11,  41,  23)
       Radiation Loss to Boundaries:        -0.158 kW
       Mesh   10
       Max CFL number:  0.62E-02 at (   6,  16,  38)
       Max divergence:  0.16E-02 at (  12,  12,  43)
       Min divergence:  0.16E-02 at (   6,  12,   6)
       Max VN number:   0.39E-02 at (  15,  25,  40)
       Radiation Loss to Boundaries:        -0.054 kW
       Mesh   11
       Max CFL number:  0.15E-01 at (  22,   6,  21)
       Max divergence:  0.16E-02 at (  18,   6,   2)
       Min divergence:  0.16E-02 at (  19,   6,  21)
       Max VN number:   0.42E-02 at (   8,   9,  10)
       Radiation Loss to Boundaries:        -0.009 kW
       Mesh   12
       Max CFL number:  0.14E-01 at (  15,   6,  21)
       Max divergence:  0.16E-02 at (  17,   6,   2)
       Min divergence:  0.16E-02 at (  15,   6,  21)
       Max VN number:   0.40E-02 at (  24,  49,  15)
       Radiation Loss to Boundaries:        -0.008 kW
       Mesh   13
       Max CFL number:  0.18E-01 at (  39,   6,   6)
       Max divergence:  0.16E-02 at (  11,  28,  23)
       Min divergence:  0.16E-02 at (   9,   6,  28)
       Max VN number:   0.40E-02 at (  25,  10,  24)
       Radiation Loss to Boundaries:        -0.007 kW
       Mesh   14
       Max CFL number:  0.65E-02 at (   9,   5,  13)
       Max divergence:  0.16E-02 at (  15,  24,  27)
       Min divergence: -0.50E-06 at (   1,  35,   7)
       Max VN number:   0.41E-02 at (  38,  13,  18)
       Radiation Loss to Boundaries:        -0.010 kW
       Mesh   15
       Max CFL number:  0.18E-01 at (   1,   6,   3)
       Max divergence:  0.16E-02 at (  25,  26,  28)
       Min divergence:  0.16E-02 at (  33,   7,  25)
       Max VN number:   0.40E-02 at (  34,  12,  20)
       Radiation Loss to Boundaries:        -0.005 kW
       Mesh   16
       Max CFL number:  0.65E-02 at (  21,   4,   3)
       Max divergence:  0.16E-02 at (  30,  24,  27)
       Min divergence:  0.16E-02 at (  22,  15,   4)
       Max VN number:   0.38E-02 at (   3,   5,  27)
       Radiation Loss to Boundaries:        -0.007 kW
       Mesh   17
       Max CFL number:  0.55E-02 at (  43,   2,  14)
       Max divergence:  0.16E-02 at (   4,  10,  20)
       Min divergence:  0.16E-02 at (  19,   9,   2)
       Max VN number:   0.39E-02 at (  17,   6,  19)
       Radiation Loss to Boundaries:        -0.009 kW
 
       Time Step       2   April 26, 2021  21:37:12
       Step Size:    0.713E-01 s, Total Time:       0.14 s
       Pressure Iterations:      1
       Maximum Velocity Error:  0.38E-01 on Mesh  13 at (  40   8  28)
       Maximum Pressure Error:  0.33E-01 on Mesh   9 at (  18   4  44)
       ---------------------------------------------------------------
       Mesh    1
       Max CFL number:  0.89E-02 at (  68,   6,   8)
       Max divergence:  0.16E-03 at (  48,  15,   5)
       Min divergence:  0.15E-03 at (  54,   7,  12)
       Max VN number:   0.41E-02 at (  60,  51,   7)
       Radiation Loss to Boundaries:        -0.015 kW
       Mesh    2
       Max CFL number:  0.89E-02 at (  12,   7,  10)
       Max divergence:  0.16E-03 at (   3,   7,   1)
       Min divergence:  0.15E-03 at (   6,   6,  13)
       Max VN number:   0.42E-02 at (   8,  48,   8)
       Radiation Loss to Boundaries:        -0.027 kW
       Mesh    3
       Max CFL number:  0.93E-02 at (   4,   7,  10)
       Max divergence:  0.16E-03 at (  12,  19,   5)
       Min divergence:  0.15E-03 at (  12,  33,  39)
       Max VN number:   0.40E-02 at (  17,  53,  14)
       Radiation Loss to Boundaries:        -0.137 kW
       Mesh    4
       Max CFL number:  0.58E-02 at (   4,  28,   9)
       Max divergence:  0.16E-03 at (   9,  67,  16)
       Min divergence:  0.15E-03 at (  15,  13,  11)
       Max VN number:   0.40E-02 at (   8,  13,  41)
       Radiation Loss to Boundaries:        -0.062 kW
       Mesh    5
       Max CFL number:  0.96E-02 at (  11,   4,  24)
       Max divergence:  0.16E-03 at (  12,  23,   5)
       Min divergence:  0.15E-03 at (  13,  86,  19)
       Max VN number:   0.41E-02 at (  17,  16,   8)
       Radiation Loss to Boundaries:        -0.055 kW
       Mesh    6
       Max CFL number:  0.57E-02 at (  13,  11,   5)
       Max divergence:  0.16E-03 at (   9,  54,  16)
       Min divergence:  0.15E-03 at (  18,  16,   4)
       Max VN number:   0.42E-02 at (   5,  62,  38)
       Radiation Loss to Boundaries:        -0.057 kW
       Mesh    7
       Max CFL number:  0.87E-02 at (   8,   5,  34)
       Max divergence:  0.16E-03 at (   6,   8,   5)
       Min divergence:  0.15E-03 at (   2,  86,  18)
       Max VN number:   0.43E-02 at (   2,   6,  19)
       Radiation Loss to Boundaries:        -0.058 kW
       Mesh    8
       Max CFL number:  0.57E-02 at (  12,  35,   9)
       Max divergence:  0.15E-03 at (   3,  32,   5)
       Min divergence: -0.12E-05 at (   2,  67,  16)
       Max VN number:   0.43E-02 at (   2,  55,  26)
       Radiation Loss to Boundaries:        -0.052 kW
       Mesh    9
       Max CFL number:  0.95E-02 at (  18,   5,  28)
       Max divergence:  0.16E-03 at (  11,  66,   5)
       Min divergence:  0.15E-03 at (   4,  83,  19)
       Max VN number:   0.41E-02 at (  11,  41,  23)
       Radiation Loss to Boundaries:        -0.152 kW
       Mesh   10
       Max CFL number:  0.57E-02 at (   6,  16,  38)
       Max divergence:  0.15E-03 at (  17,  31,   5)
       Min divergence:  0.15E-03 at (  10,   9,  39)
       Max VN number:   0.39E-02 at (  15,  25,  40)
       Radiation Loss to Boundaries:        -0.052 kW
       Mesh   11
       Max CFL number:  0.92E-02 at (  26,   7,   6)
       Max divergence:  0.16E-03 at (  18,   6,   2)
       Min divergence:  0.15E-03 at (  19,   6,  21)
       Max VN number:   0.42E-02 at (   8,   9,  10)
       Radiation Loss to Boundaries:        -0.004 kW
       Mesh   12
       Max CFL number:  0.89E-02 at (  10,   7,   5)
       Max divergence:  0.16E-03 at (  18,   8,   2)
       Min divergence:  0.15E-03 at (  24,   6,  21)
       Max VN number:   0.40E-02 at (  24,  49,  15)
       Radiation Loss to Boundaries:        -0.005 kW
       Mesh   13
       Max CFL number:  0.90E-02 at (   9,   7,   6)
       Max divergence:  0.15E-03 at (   7,  14,   2)
       Min divergence:  0.15E-03 at (  18,  19,  28)
       Max VN number:   0.40E-02 at (  25,  10,  24)
       Radiation Loss to Boundaries:        -0.004 kW
       Mesh   14
       Max CFL number:  0.58E-02 at (   6,   8,  19)
       Max divergence:  0.15E-03 at (   7,  24,   2)
       Min divergence: -0.61E-06 at (   2,  34,  25)
       Max VN number:   0.40E-02 at (  20,   3,  22)
       Radiation Loss to Boundaries:        -0.006 kW
       Mesh   15
       Max CFL number:  0.98E-02 at (   5,   7,  19)
       Max divergence:  0.15E-03 at (  13,   9,   2)
       Min divergence:  0.15E-03 at (  34,  19,  28)
       Max VN number:   0.40E-02 at (   2,  11,  11)
       Radiation Loss to Boundaries:        -0.002 kW
       Mesh   16
       Max CFL number:  0.57E-02 at (  16,  18,   9)
       Max divergence:  0.15E-03 at (  12,  20,   2)
       Min divergence:  0.15E-03 at (   8,   6,  28)
       Max VN number:   0.38E-02 at (   3,   5,  27)
       Radiation Loss to Boundaries:        -0.004 kW
       Mesh   17
       Max CFL number:  0.52E-02 at (  44,   5,  17)
       Max divergence:  0.16E-03 at (  38,   8,   2)
       Min divergence:  0.15E-03 at (  45,   5,  21)
       Max VN number:   0.39E-02 at (  17,   6,  19)
       Radiation Loss to Boundaries:        -0.008 kW
 
       Time Step       3   April 26, 2021  21:37:13
       Step Size:    0.713E-01 s, Total Time:       0.21 s
       Pressure Iterations:      1
       Maximum Velocity Error:  0.30E-01 on Mesh  13 at (  40   9  28)
       Maximum Pressure Error:  0.13E-01 on Mesh   9 at (  18   4  44)
       ---------------------------------------------------------------
       Mesh    1
       Max CFL number:  0.74E-02 at (  10,  10,   5)
       Max divergence:  0.38E-03 at (  70,  52,   5)
       Min divergence:  0.37E-03 at (  32,  10,  12)
       Max VN number:   0.40E-02 at (  60,  51,   7)
       Radiation Loss to Boundaries:        -0.014 kW
       Mesh    2
       Max CFL number:  0.71E-02 at (  53,   8,  12)
       Max divergence:  0.38E-03 at (  74,   9,   1)
       Min divergence:  0.37E-03 at (  70,  11,  13)
       Max VN number:   0.42E-02 at (   8,  48,   8)
       Radiation Loss to Boundaries:        -0.025 kW
       Mesh    3
       Max CFL number:  0.79E-02 at (   4,   7,  10)
       Max divergence:  0.38E-03 at (  11,  17,  40)
       Min divergence:  0.37E-03 at (   8,   9,  10)
       Max VN number:   0.40E-02 at (  17,  53,  14)
       Radiation Loss to Boundaries:        -0.135 kW
       Mesh    4
       Max CFL number:  0.57E-02 at (   8,  30,   5)
       Max divergence:  0.38E-03 at (   5,  78,  16)
       Min divergence:  0.37E-03 at (  15,  13,  11)
       Max VN number:   0.40E-02 at (   8,  13,  41)
       Radiation Loss to Boundaries:        -0.060 kW
       Mesh    5
       Max CFL number:  0.80E-02 at (   8,   5,  44)
       Max divergence:  0.38E-03 at (  12,  23,   5)
       Min divergence:  0.37E-03 at (  11,   4,   5)
       Max VN number:   0.42E-02 at (  17,  16,   8)
       Radiation Loss to Boundaries:        -0.053 kW
       Mesh    6
       Max CFL number:  0.56E-02 at (  13,  11,   5)
       Max divergence:  0.38E-03 at (   9,  54,  16)
       Min divergence:  0.37E-03 at (  18,  16,   4)
       Max VN number:   0.42E-02 at (   5,  62,  38)
       Radiation Loss to Boundaries:        -0.056 kW
       Mesh    7
       Max CFL number:  0.75E-02 at (   3,   5,  42)
       Max divergence:  0.38E-03 at (   1,   8,   5)
       Min divergence:  0.37E-03 at (   2,  86,  18)
       Max VN number:   0.39E-02 at (  13,  77,  10)
       Radiation Loss to Boundaries:        -0.056 kW
       Mesh    8
       Max CFL number:  0.55E-02 at (  12,  35,   9)
       Max divergence:  0.38E-03 at (   3,  32,   5)
       Min divergence: -0.12E-05 at (   2,  67,  16)
       Max VN number:   0.43E-02 at (   2,  55,  26)
       Radiation Loss to Boundaries:        -0.051 kW
       Mesh    9
       Max CFL number:  0.76E-02 at (  18,   5,  28)
       Max divergence:  0.38E-03 at (  11,  66,   5)
       Min divergence:  0.37E-03 at (   4,  83,  19)
       Max VN number:   0.41E-02 at (  11,  41,  23)
       Radiation Loss to Boundaries:        -0.150 kW
       Mesh   10
       Max CFL number:  0.56E-02 at (   6,  16,  38)
       Max divergence:  0.38E-03 at (  17,  31,   5)
       Min divergence:  0.37E-03 at (  10,   9,  39)
       Max VN number:   0.39E-02 at (  15,  25,  40)
       Radiation Loss to Boundaries:        -0.051 kW
       Mesh   11
       Max CFL number:  0.80E-02 at (  29,   9,  20)
       Max divergence:  0.38E-03 at (   3,  10,   2)
       Min divergence:  0.37E-03 at (  22,  11,  21)
       Max VN number:   0.42E-02 at (   8,   9,  10)
       Radiation Loss to Boundaries:        -0.003 kW
       Mesh   12
       Max CFL number:  0.72E-02 at (  10,   7,   5)
       Max divergence:  0.38E-03 at (   9,  13,   2)
       Min divergence:  0.37E-03 at (  11,  13,  21)
       Max VN number:   0.39E-02 at (  24,  49,  15)
       Radiation Loss to Boundaries:        -0.004 kW
       Mesh   13
       Max CFL number:  0.79E-02 at (  16,   8,  28)
       Max divergence:  0.38E-03 at (  13,   8,  27)
       Min divergence:  0.37E-03 at (  32,  30,  22)
       Max VN number:   0.40E-02 at (  25,  10,  24)
       Radiation Loss to Boundaries:        -0.004 kW
       Mesh   14
       Max CFL number:  0.58E-02 at (   6,   8,  19)
       Max divergence:  0.38E-03 at (   7,  24,   2)
       Min divergence: -0.82E-06 at (   2,  34,  25)
       Max VN number:   0.41E-02 at (  38,  13,  18)
       Radiation Loss to Boundaries:        -0.005 kW
       Mesh   15
       Max CFL number:  0.88E-02 at (  22,   7,  27)
       Max divergence:  0.38E-03 at (  27,   9,  25)
       Min divergence:  0.37E-03 at (   7,  23,  28)
       Max VN number:   0.40E-02 at (  34,  12,  20)
       Radiation Loss to Boundaries:        -0.002 kW
       Mesh   16
       Max CFL number:  0.58E-02 at (  30,   3,  26)
       Max divergence:  0.38E-03 at (  12,  20,   2)
       Min divergence:  0.37E-03 at (  31,  17,  28)
       Max VN number:   0.38E-02 at (   3,   5,  27)
       Radiation Loss to Boundaries:        -0.003 kW
       Mesh   17
       Max CFL number:  0.53E-02 at (  38,   8,   2)
       Max divergence:  0.38E-03 at (  38,   8,   2)
       Min divergence:  0.37E-03 at (  45,   5,  21)
       Max VN number:   0.39E-02 at (  17,   6,  19)
       Radiation Loss to Boundaries:        -0.008 kW
 
       Time Step       4   April 26, 2021  21:37:13
       Step Size:    0.713E-01 s, Total Time:       0.29 s
       Pressure Iterations:      1
       Maximum Velocity Error:  0.34E-01 on Mesh   3 at (  21   4  31)
       Maximum Pressure Error:  0.99E-02 on Mesh   3 at (   3   4  44)
       ---------------------------------------------------------------
       Mesh    1
       Max CFL number:  0.74E-02 at (  24,  10,  11)
       Max divergence: -0.11E-04 at (  70,  52,   5)
       Min divergence: -0.14E-04 at (  25,  31,   6)
       Max VN number:   0.40E-02 at (  60,  51,   7)
       Radiation Loss to Boundaries:        -0.007 kW
       Mesh    2
       Max CFL number:  0.79E-02 at (  30,   6,  13)
       Max divergence: -0.11E-04 at (  36,   6,  12)
       Min divergence: -0.16E-04 at (  53,   6,   1)
       Max VN number:   0.42E-02 at (   8,  48,   8)
       Radiation Loss to Boundaries:        -0.013 kW
       Mesh    3
       Max CFL number:  0.80E-02 at (   5,   5,   6)
       Max divergence: -0.11E-04 at (   9,  29,   5)
       Min divergence: -0.15E-04 at (   7,   4,   6)
       Max VN number:   0.40E-02 at (  17,  53,  14)
       Radiation Loss to Boundaries:        -0.112 kW
       Mesh    4
       Max CFL number:  0.58E-02 at (   8,  30,   4)
       Max divergence: -0.11E-04 at (   5,  78,  16)
       Min divergence: -0.14E-04 at (  15,  13,  11)
       Max VN number:   0.40E-02 at (   8,  13,  41)
       Radiation Loss to Boundaries:        -0.045 kW
       Mesh    5
       Max CFL number:  0.68E-02 at (   1,   5,  42)
       Max divergence: -0.11E-04 at (  12,  23,   5)
       Min divergence: -0.15E-04 at (  11,   4,   5)
       Max VN number:   0.42E-02 at (  17,  16,   8)
       Radiation Loss to Boundaries:        -0.033 kW
       Mesh    6
       Max CFL number:  0.55E-02 at (  16,   5,  28)
       Max divergence: -0.11E-04 at (   2,  26,   5)
       Min divergence: -0.15E-04 at (  18,  53,  21)
       Max VN number:   0.42E-02 at (   5,  62,  38)
       Radiation Loss to Boundaries:        -0.033 kW
       Mesh    7
       Max CFL number:  0.79E-02 at (   1,   4,  42)
       Max divergence: -0.11E-04 at (   1,   8,   5)
       Min divergence: -0.15E-04 at (  12,  14,  44)
       Max VN number:   0.39E-02 at (  13,  77,  10)
       Radiation Loss to Boundaries:        -0.029 kW
       Mesh    8
       Max CFL number:  0.55E-02 at (  12,  34,   9)
       Max divergence:  0.16E-05 at (   1,  64,  40)
       Min divergence: -0.14E-04 at (  12,   3,  44)
       Max VN number:   0.43E-02 at (   2,  55,  26)
       Radiation Loss to Boundaries:        -0.027 kW
       Mesh    9
       Max CFL number:  0.74E-02 at (   3,   5,  33)
       Max divergence: -0.11E-04 at (  11,  66,   5)
       Min divergence: -0.15E-04 at (  16,   6,   5)
       Max VN number:   0.41E-02 at (  11,  41,  23)
       Radiation Loss to Boundaries:        -0.111 kW
       Mesh   10
       Max CFL number:  0.55E-02 at (  17,  11,   8)
       Max divergence: -0.11E-04 at (  17,  31,   5)
       Min divergence: -0.15E-04 at (  10,   9,  39)
       Max VN number:   0.39E-02 at (  15,  25,  40)
       Radiation Loss to Boundaries:        -0.055 kW
       Mesh   11
       Max CFL number:  0.77E-02 at (  29,   8,  20)
       Max divergence: -0.11E-04 at (  15,  30,   2)
       Min divergence: -0.15E-04 at (  40,   6,   2)
       Max VN number:   0.42E-02 at (   8,   9,  10)
       Mesh   12
       Max CFL number:  0.70E-02 at (  16,   6,   2)
       Max divergence: -0.11E-04 at (   9,  13,   2)
       Min divergence: -0.14E-04 at (  13,   6,   2)
       Max VN number:   0.39E-02 at (  24,  49,  15)
       Mesh   13
       Max CFL number:  0.87E-02 at (  14,   6,  25)
       Max divergence: -0.11E-04 at (   8,   6,  27)
       Min divergence: -0.14E-04 at (  37,  27,  28)
       Max VN number:   0.40E-02 at (  25,  10,  24)
       Mesh   14
       Max CFL number:  0.57E-02 at (   7,  15,  28)
       Max divergence:  0.54E-06 at (   2,  36,   3)
       Min divergence: -0.15E-04 at (   7,  15,  28)
       Max VN number:   0.41E-02 at (  38,  13,  18)
       Radiation Loss to Boundaries:        -0.001 kW
       Mesh   15
       Max CFL number:  0.97E-02 at (  22,   7,  28)
       Max divergence: -0.11E-04 at (  35,   6,  26)
       Min divergence: -0.14E-04 at (   7,  23,  28)
       Max VN number:   0.40E-02 at (  34,  12,  20)
       Mesh   16
       Max CFL number:  0.57E-02 at (  30,   2,  26)
       Max divergence: -0.11E-04 at (  12,  20,   2)
       Min divergence: -0.14E-04 at (  31,  17,  28)
       Max VN number:   0.38E-02 at (   3,   5,  27)
       Mesh   17
       Max CFL number:  0.54E-02 at (  38,   8,   1)
       Max divergence: -0.11E-04 at (  38,   8,   2)
       Min divergence: -0.14E-04 at (  45,   5,  21)
       Max VN number:   0.39E-02 at (  17,   6,  19)
       Radiation Loss to Boundaries:        -0.005 kW
 
       Time Step       5   April 26, 2021  21:37:14
       Step Size:    0.713E-01 s, Total Time:       0.36 s
       Pressure Iterations:      1
       Maximum Velocity Error:  0.57E-01 on Mesh  13 at (  40   6   5)
       Maximum Pressure Error:  0.16E-01 on Mesh   3 at (   3   4   4)
       ---------------------------------------------------------------
       Mesh    1
       Max CFL number:  0.84E-02 at (  40,   7,  11)
       Max divergence: -0.41E-03 at (  52,   6,  12)
       Min divergence: -0.41E-03 at (  25,  31,   6)
       Max VN number:   0.40E-02 at (  60,  51,   7)
       Radiation Loss to Boundaries:        -0.008 kW
       Mesh    2
       Max CFL number:  0.97E-02 at (  30,   6,  13)
       Max divergence: -0.41E-03 at (   5,   6,  12)
       Min divergence: -0.41E-03 at (  53,   6,   1)
       Max VN number:   0.42E-02 at (   8,  48,   8)
       Radiation Loss to Boundaries:        -0.014 kW
       Mesh    3
       Max CFL number:  0.10E-01 at (  19,   5,  37)
       Max divergence: -0.41E-03 at (   3,  55,   5)
       Min divergence: -0.41E-03 at (  12,  33,  39)
       Max VN number:   0.40E-02 at (  17,  53,  14)
       Radiation Loss to Boundaries:        -0.114 kW
       Mesh    4
       Max CFL number:  0.58E-02 at (   8,  30,   4)
       Max divergence: -0.41E-03 at (  10,  25,   5)
       Min divergence: -0.41E-03 at (   8,  31,  44)
       Max VN number:   0.40E-02 at (   8,  13,  41)
       Radiation Loss to Boundaries:        -0.046 kW
       Mesh    5
       Max CFL number:  0.91E-02 at (   1,   4,  25)
       Max divergence: -0.41E-03 at (  12,  23,   5)
       Min divergence: -0.41E-03 at (  17,  39,  44)
       Max VN number:   0.42E-02 at (  17,  16,   8)
       Radiation Loss to Boundaries:        -0.034 kW
       Mesh    6
       Max CFL number:  0.56E-02 at (  16,   5,  28)
       Max divergence: -0.41E-03 at (   2,  26,   5)
       Min divergence: -0.41E-03 at (  15,   5,  44)
       Max VN number:   0.42E-02 at (   5,  62,  38)
       Radiation Loss to Boundaries:        -0.034 kW
       Mesh    7
       Max CFL number:  0.10E-01 at (   1,   4,  42)
       Max divergence: -0.41E-03 at (  15,  82,   5)
       Min divergence: -0.41E-03 at (  12,  14,  44)
       Max VN number:   0.39E-02 at (  13,  77,  10)
       Radiation Loss to Boundaries:        -0.031 kW
       Mesh    8
       Max CFL number:  0.55E-02 at (  12,  34,   9)
       Max divergence:  0.15E-05 at (   1,  64,  40)
       Min divergence: -0.41E-03 at (  12,   3,  44)
       Max VN number:   0.43E-02 at (   2,  55,  26)
       Radiation Loss to Boundaries:        -0.027 kW
       Mesh    9
       Max CFL number:  0.10E-01 at (   3,   5,  33)
       Max divergence: -0.41E-03 at (  11,  66,   5)
       Min divergence: -0.41E-03 at (   9,  27,  44)
       Max VN number:   0.41E-02 at (  11,  41,  23)
       Radiation Loss to Boundaries:        -0.112 kW
       Mesh   10
       Max CFL number:  0.57E-02 at (  18,   5,  28)
       Max divergence: -0.41E-03 at (  17,  31,   5)
       Min divergence: -0.41E-03 at (  10,   9,  39)
       Max VN number:   0.39E-02 at (  15,  25,  40)
       Radiation Loss to Boundaries:        -0.055 kW
       Mesh   11
       Max CFL number:  0.98E-02 at (  35,   6,  21)
       Max divergence: -0.41E-03 at (  35,   6,  20)
       Min divergence: -0.41E-03 at (  40,   6,   2)
       Max VN number:   0.42E-02 at (   8,   9,  10)
       Mesh   12
       Max CFL number:  0.94E-02 at (  16,   6,   2)
       Max divergence: -0.41E-03 at (  19,   6,  20)
       Min divergence: -0.41E-03 at (  13,   6,   2)
       Max VN number:   0.39E-02 at (  24,  49,  15)
       Radiation Loss to Boundaries:        -0.002 kW
       Mesh   13
       Max CFL number:  0.10E-01 at (   3,   6,  28)
       Max divergence: -0.41E-03 at (   3,   6,  25)
       Min divergence: -0.41E-03 at (  37,  27,  28)
       Max VN number:   0.40E-02 at (  25,  10,  24)
       Radiation Loss to Boundaries:        -0.001 kW
       Mesh   14
       Max CFL number:  0.62E-02 at (  10,  32,  28)
       Max divergence:  0.52E-06 at (   2,  36,   3)
       Min divergence: -0.41E-03 at (  10,  32,  28)
       Max VN number:   0.41E-02 at (  38,  13,  18)
       Radiation Loss to Boundaries:        -0.002 kW
       Mesh   15
       Max CFL number:  0.12E-01 at (  35,   6,  27)
       Max divergence: -0.41E-03 at (  35,   6,  26)
       Min divergence: -0.41E-03 at (   7,  23,  28)
       Max VN number:   0.39E-02 at (  34,  12,  20)
       Mesh   16
       Max CFL number:  0.58E-02 at (   6,  13,   7)
       Max divergence: -0.41E-03 at (  12,  20,   2)
       Min divergence: -0.41E-03 at (  31,  17,  28)
       Max VN number:   0.38E-02 at (   3,   5,  27)
       Mesh   17
       Max CFL number:  0.56E-02 at (  38,   8,   1)
       Max divergence: -0.41E-03 at (  38,   8,   2)
       Min divergence: -0.41E-03 at (  45,   5,  21)
       Max VN number:   0.39E-02 at (  17,   6,  19)
       Radiation Loss to Boundaries:        -0.005 kW
 
       Time Step       6   April 26, 2021  21:37:14
       Step Size:    0.713E-01 s, Total Time:       0.43 s
       Pressure Iterations:      1
       Maximum Velocity Error:  0.48E-01 on Mesh  13 at (  40   7   5)
       Maximum Pressure Error:  0.17E-01 on Mesh   3 at (   3   4   4)
       ---------------------------------------------------------------
       Mesh    1
       Max CFL number:  0.92E-02 at (  40,   7,  11)
       Max divergence: -0.41E-03 at (  40,   7,  12)
       Min divergence: -0.41E-03 at (  25,  31,   6)
       Max VN number:   0.40E-02 at (  60,  51,   7)
       Radiation Loss to Boundaries:        -0.010 kW
       Mesh    2
       Max CFL number:  0.93E-02 at (  58,   7,  13)
       Max divergence: -0.41E-03 at (   5,   6,  12)
       Min divergence: -0.41E-03 at (  53,   6,   1)
       Max VN number:   0.42E-02 at (   8,  48,   8)
       Radiation Loss to Boundaries:        -0.017 kW
       Mesh    3
       Max CFL number:  0.10E-01 at (  19,   5,  37)
       Max divergence: -0.41E-03 at (  12,  19,   5)
       Min divergence: -0.41E-03 at (  12,  33,  39)
       Max VN number:   0.40E-02 at (  17,  53,  14)
       Radiation Loss to Boundaries:        -0.117 kW
       Mesh    4
       Max CFL number:  0.56E-02 at (  20,  39,  23)
       Max divergence: -0.41E-03 at (  10,  25,   5)
       Min divergence: -0.41E-03 at (   8,  31,  44)
       Max VN number:   0.40E-02 at (   8,  13,  41)
       Radiation Loss to Boundaries:        -0.048 kW
       Mesh    5
       Max CFL number:  0.90E-02 at (   1,   4,  44)
       Max divergence: -0.41E-03 at (  12,  23,   5)
       Min divergence: -0.41E-03 at (  17,  39,  44)
       Max VN number:   0.42E-02 at (  17,  16,   8)
       Radiation Loss to Boundaries:        -0.037 kW
       Mesh    6
       Max CFL number:  0.56E-02 at (  16,   5,  28)
       Max divergence: -0.41E-03 at (   2,  26,   5)
       Min divergence: -0.41E-03 at (  15,   5,  44)
       Max VN number:   0.42E-02 at (   5,  62,  38)
       Radiation Loss to Boundaries:        -0.036 kW
       Mesh    7
       Max CFL number:  0.10E-01 at (   1,   4,  42)
       Max divergence: -0.41E-03 at (   6,   8,   5)
       Min divergence: -0.41E-03 at (  15,  86,  44)
       Max VN number:   0.39E-02 at (  13,  77,  10)
       Radiation Loss to Boundaries:        -0.034 kW
       Mesh    8
       Max CFL number:  0.55E-02 at (  12,  34,   9)
       Max divergence:  0.14E-05 at (   1,  64,  40)
       Min divergence: -0.41E-03 at (  12,   3,  44)
       Max VN number:   0.43E-02 at (   2,  55,  26)
       Radiation Loss to Boundaries:        -0.029 kW
       Mesh    9
       Max CFL number:  0.10E-01 at (   3,   5,  33)
       Max divergence: -0.41E-03 at (  11,  66,   5)
       Min divergence: -0.41E-03 at (   9,  27,  44)
       Max VN number:   0.41E-02 at (  11,  41,  23)
       Radiation Loss to Boundaries:        -0.115 kW
       Mesh   10
       Max CFL number:  0.58E-02 at (   3,  31,  34)
       Max divergence: -0.41E-03 at (  17,  31,   5)
       Min divergence: -0.41E-03 at (  10,   9,  39)
       Max VN number:   0.39E-02 at (  15,  25,  40)
       Radiation Loss to Boundaries:        -0.056 kW
       Mesh   11
       Max CFL number:  0.93E-02 at (  35,   6,  21)
       Max divergence: -0.41E-03 at (  35,   6,  20)
       Min divergence: -0.41E-03 at (   5,   6,   2)
       Max VN number:   0.42E-02 at (   8,   9,  10)
       Radiation Loss to Boundaries:        -0.003 kW
       Mesh   12
       Max CFL number:  0.89E-02 at (  16,   6,   2)
       Max divergence: -0.41E-03 at (  18,   7,  20)
       Min divergence: -0.41E-03 at (  25,   7,   2)
       Max VN number:   0.39E-02 at (  24,  49,  15)
       Radiation Loss to Boundaries:        -0.003 kW
       Mesh   13
       Max CFL number:  0.11E-01 at (  38,   7,  14)
       Max divergence: -0.41E-03 at (   3,   6,  25)
       Min divergence: -0.41E-03 at (  37,  27,  28)
       Max VN number:   0.40E-02 at (  25,  10,  24)
       Radiation Loss to Boundaries:        -0.003 kW
       Mesh   14
       Max CFL number:  0.60E-02 at (  10,  32,  28)
       Max divergence:  0.53E-06 at (   2,  36,   3)
       Min divergence: -0.41E-03 at (  10,  32,  28)
       Max VN number:   0.41E-02 at (  38,  13,  18)
       Radiation Loss to Boundaries:        -0.004 kW
       Mesh   15
       Max CFL number:  0.11E-01 at (  35,   6,  27)
       Max divergence: -0.41E-03 at (  35,   6,  26)
       Min divergence: -0.41E-03 at (   7,  23,  28)
       Max VN number:   0.39E-02 at (  34,  12,  20)
       Radiation Loss to Boundaries:        -0.002 kW
       Mesh   16
       Max CFL number:  0.59E-02 at (   6,  13,   7)
       Max divergence: -0.41E-03 at (  12,  20,   2)
       Min divergence: -0.41E-03 at (  31,  17,  28)
       Max VN number:   0.38E-02 at (   3,   5,  27)
       Radiation Loss to Boundaries:        -0.002 kW
       Mesh   17
       Max CFL number:  0.56E-02 at (  38,   8,   1)
       Max divergence: -0.41E-03 at (  38,   8,   2)
       Min divergence: -0.41E-03 at (  45,   5,  21)
       Max VN number:   0.39E-02 at (  17,   6,  19)
       Radiation Loss to Boundaries:        -0.005 kW
 
       Time Step       7   April 26, 2021  21:37:15
       Step Size:    0.713E-01 s, Total Time:       0.50 s
       Pressure Iterations:      1
       Maximum Velocity Error:  0.52E-01 on Mesh  13 at (  40   8  28)
       Maximum Pressure Error:  0.13E-01 on Mesh   3 at (   3   4   4)
       ---------------------------------------------------------------
       Mesh    1
       Max CFL number:  0.86E-02 at (  40,   7,  11)
       Max divergence: -0.40E-03 at (  36,   8,  12)
       Min divergence: -0.40E-03 at (  25,  31,   6)
       Max VN number:   0.40E-02 at (  60,  51,   7)
       Radiation Loss to Boundaries:        -0.007 kW
       Mesh    2
       Max CFL number:  0.79E-02 at (  58,   7,  13)
       Max divergence: -0.40E-03 at (   5,   6,  12)
       Min divergence: -0.40E-03 at (   3,   8,   1)
       Max VN number:   0.41E-02 at (   8,  48,   8)
       Radiation Loss to Boundaries:        -0.011 kW
       Mesh    3
       Max CFL number:  0.89E-02 at (  19,   6,  31)
       Max divergence: -0.40E-03 at (  15,   7,   5)
       Min divergence: -0.40E-03 at (  12,  33,  39)
       Max VN number:   0.40E-02 at (  17,  53,  14)
       Radiation Loss to Boundaries:        -0.088 kW
       Mesh    4
       Max CFL number:  0.56E-02 at (  20,  39,  23)
       Max divergence: -0.40E-03 at (  10,  25,   5)
       Min divergence: -0.40E-03 at (   8,  31,  44)
       Max VN number:   0.40E-02 at (   9,  65,  27)
       Radiation Loss to Boundaries:        -0.033 kW
       Mesh    5
       Max CFL number:  0.87E-02 at (   3,   4,   4)
       Max divergence: -0.40E-03 at (  12,  23,   5)
       Min divergence: -0.40E-03 at (  17,  39,  44)
       Max VN number:   0.42E-02 at (  17,  16,   8)
       Radiation Loss to Boundaries:        -0.030 kW
       Mesh    6
       Max CFL number:  0.56E-02 at (  16,   5,  28)
       Max divergence: -0.40E-03 at (   2,  26,   5)
       Min divergence: -0.40E-03 at (  15,   5,  44)
       Max VN number:   0.42E-02 at (   5,  62,  38)
       Radiation Loss to Boundaries:        -0.030 kW
       Mesh    7
       Max CFL number:  0.87E-02 at (  18,   6,  44)
       Max divergence: -0.40E-03 at (   6,   8,   5)
       Min divergence: -0.40E-03 at (  12,  14,  44)
       Max VN number:   0.39E-02 at (  13,  77,  10)
       Radiation Loss to Boundaries:        -0.031 kW
       Mesh    8
       Max CFL number:  0.54E-02 at (  12,  34,   9)
       Max divergence:  0.13E-05 at (   2,  55,  26)
       Min divergence: -0.40E-03 at (  12,   3,  44)
       Max VN number:   0.43E-02 at (   2,  55,  26)
       Radiation Loss to Boundaries:        -0.019 kW
       Mesh    9
       Max CFL number:  0.97E-02 at (   1,   5,   8)
       Max divergence: -0.40E-03 at (  11,  66,   5)
       Min divergence: -0.40E-03 at (   9,  27,  44)
       Max VN number:   0.40E-02 at (  11,  41,  23)
       Radiation Loss to Boundaries:        -0.073 kW
       Mesh   10
       Max CFL number:  0.58E-02 at (   3,  31,  34)
       Max divergence: -0.40E-03 at (  17,  31,   5)
       Min divergence: -0.40E-03 at (  10,   9,  39)
       Max VN number:   0.39E-02 at (  15,  25,  40)
       Radiation Loss to Boundaries:        -0.045 kW
       Mesh   11
       Max CFL number:  0.80E-02 at (  36,   9,  21)
       Max divergence: -0.40E-03 at (  15,  30,   2)
       Min divergence: -0.40E-03 at (   3,   8,   4)
       Max VN number:   0.42E-02 at (   8,   9,  10)
       Radiation Loss to Boundaries:        -0.003 kW
       Mesh   12
       Max CFL number:  0.79E-02 at (  17,   9,  21)
       Max divergence: -0.40E-03 at (  21,  23,   2)
       Min divergence: -0.40E-03 at (   9,  38,  21)
       Max VN number:   0.39E-02 at (  24,  49,  15)
       Radiation Loss to Boundaries:        -0.002 kW
       Mesh   13
       Max CFL number:  0.97E-02 at (  38,   7,  14)
       Max divergence: -0.40E-03 at (   7,  14,   2)
       Min divergence: -0.40E-03 at (  18,  19,  28)
       Max VN number:   0.40E-02 at (  25,  10,  24)
       Radiation Loss to Boundaries:        -0.002 kW
       Mesh   14
       Max CFL number:  0.58E-02 at (  39,  19,  10)
       Max divergence:  0.53E-06 at (   2,  36,   3)
       Min divergence: -0.40E-03 at (  10,  32,  28)
       Max VN number:   0.41E-02 at (  38,  13,  18)
       Radiation Loss to Boundaries:        -0.003 kW
       Mesh   15
       Max CFL number:  0.11E-01 at (   2,   6,  28)
       Max divergence: -0.40E-03 at (  13,   9,   2)
       Min divergence: -0.40E-03 at (   7,  23,  28)
       Max VN number:   0.39E-02 at (  34,  12,  20)
       Radiation Loss to Boundaries:        -0.002 kW
       Mesh   16
       Max CFL number:  0.60E-02 at (   6,  13,   7)
       Max divergence: -0.40E-03 at (  12,  20,   2)
       Min divergence: -0.40E-03 at (  26,   2,  28)
       Max VN number:   0.38E-02 at (   3,   5,  27)
       Radiation Loss to Boundaries:        -0.002 kW
       Mesh   17
       Max CFL number:  0.55E-02 at (  38,   8,   1)
       Max divergence: -0.40E-03 at (  38,   8,   2)
       Min divergence: -0.40E-03 at (  45,   5,  21)
       Max VN number:   0.39E-02 at (  17,   6,  19)
       Radiation Loss to Boundaries:        -0.004 kW
 
       Time Step       8   April 26, 2021  21:37:16
       Step Size:    0.713E-01 s, Total Time:       0.57 s
       Pressure Iterations:      1
       Maximum Velocity Error:  0.51E-01 on Mesh  13 at (  40   9  28)
       Maximum Pressure Error:  0.82E-02 on Mesh  13 at (   3   6  28)
       ---------------------------------------------------------------
       Mesh    1
       Max CFL number:  0.76E-02 at (  24,   7,   6)
       Max divergence: -0.36E-03 at (  21,  10,  12)
       Min divergence: -0.36E-03 at (  25,  31,   6)
       Max VN number:   0.40E-02 at (  60,  51,   7)
       Radiation Loss to Boundaries:        -0.009 kW
       Mesh    2
       Max CFL number:  0.67E-02 at (  49,   9,  13)
       Max divergence: -0.36E-03 at (   5,   6,  12)
       Min divergence: -0.37E-03 at (   3,   8,   1)
       Max VN number:   0.41E-02 at (   8,  48,   8)
       Radiation Loss to Boundaries:        -0.014 kW
       Mesh    3
       Max CFL number:  0.84E-02 at (  19,   7,   4)
       Max divergence: -0.36E-03 at (   3,   4,   5)
       Min divergence: -0.36E-03 at (  14,  84,  26)
       Max VN number:   0.40E-02 at (  17,  53,  14)
       Radiation Loss to Boundaries:        -0.091 kW
       Mesh    4
       Max CFL number:  0.56E-02 at (  20,  39,  23)
       Max divergence: -0.36E-03 at (  11,  18,   5)
       Min divergence: -0.36E-03 at (   8,  31,  44)
       Max VN number:   0.39E-02 at (   9,  65,  27)
       Radiation Loss to Boundaries:        -0.035 kW
       Mesh    5
       Max CFL number:  0.70E-02 at (   3,   4,   4)
       Max divergence: -0.36E-03 at (  11,  30,   5)
       Min divergence: -0.36E-03 at (  17,  39,  44)
       Max VN number:   0.41E-02 at (  17,  16,   8)
       Radiation Loss to Boundaries:        -0.032 kW
       Mesh    6
       Max CFL number:  0.56E-02 at (  16,   5,  28)
       Max divergence: -0.36E-03 at (   2,  26,   5)
       Min divergence: -0.36E-03 at (  15,   5,  44)
       Max VN number:   0.41E-02 at (   5,  62,  38)
       Radiation Loss to Boundaries:        -0.032 kW
       Mesh    7
       Max CFL number:  0.76E-02 at (  16,   7,   4)
       Max divergence: -0.36E-03 at (   6,   8,   5)
       Min divergence: -0.36E-03 at (  15,  86,  44)
       Max VN number:   0.39E-02 at (  13,  77,  10)
       Radiation Loss to Boundaries:        -0.033 kW
       Mesh    8
       Max CFL number:  0.55E-02 at (  12,  34,   9)
       Max divergence:  0.13E-05 at (   2,  55,  26)
       Min divergence: -0.36E-03 at (  13,   5,  44)
       Max VN number:   0.43E-02 at (   2,  55,  26)
       Radiation Loss to Boundaries:        -0.020 kW
       Mesh    9
       Max CFL number:  0.94E-02 at (   3,   7,   5)
       Max divergence: -0.36E-03 at (  15,   4,   5)
       Min divergence: -0.36E-03 at (   9,  27,  44)
       Max VN number:   0.40E-02 at (  11,  41,  23)
       Radiation Loss to Boundaries:        -0.076 kW
       Mesh   10
       Max CFL number:  0.57E-02 at (   3,  31,  34)
       Max divergence: -0.36E-03 at (  17,  31,   5)
       Min divergence: -0.36E-03 at (  10,   9,  39)
       Max VN number:   0.38E-02 at (  15,  25,  40)
       Radiation Loss to Boundaries:        -0.046 kW
       Mesh   11
       Max CFL number:  0.69E-02 at (   4,  10,   2)
       Max divergence: -0.36E-03 at (  15,  30,   2)
       Min divergence: -0.36E-03 at (  27,  31,  21)
       Max VN number:   0.42E-02 at (   8,   9,  10)
       Radiation Loss to Boundaries:        -0.005 kW
       Mesh   12
       Max CFL number:  0.67E-02 at (  17,   9,  21)
       Max divergence: -0.36E-03 at (  11,  50,   2)
       Min divergence: -0.36E-03 at (   9,  38,  21)
       Max VN number:   0.39E-02 at (  24,  49,  15)
       Radiation Loss to Boundaries:        -0.003 kW
       Mesh   13
       Max CFL number:  0.99E-02 at (  38,  10,  27)
       Max divergence: -0.36E-03 at (   7,  14,   2)
       Min divergence: -0.36E-03 at (  25,  10,  24)
       Max VN number:   0.40E-02 at (  25,  10,  24)
       Radiation Loss to Boundaries:        -0.003 kW
       Mesh   14
       Max CFL number:  0.58E-02 at (  35,  30,  20)
       Max divergence:  0.62E-06 at (   2,  35,  27)
       Min divergence: -0.36E-03 at (  12,   3,  28)
       Max VN number:   0.41E-02 at (  38,  13,  18)
       Radiation Loss to Boundaries:        -0.005 kW
       Mesh   15
       Max CFL number:  0.11E-01 at (   2,   6,  28)
       Max divergence: -0.36E-03 at (  13,   9,   2)
       Min divergence: -0.36E-03 at (  27,   6,  28)
       Max VN number:   0.39E-02 at (  34,  12,  20)
       Radiation Loss to Boundaries:        -0.003 kW
       Mesh   16
       Max CFL number:  0.60E-02 at (   6,  13,   7)
       Max divergence: -0.36E-03 at (  12,  20,   2)
       Min divergence: -0.36E-03 at (   8,   6,  28)
       Max VN number:   0.38E-02 at (   3,   5,  27)
       Radiation Loss to Boundaries:        -0.004 kW
       Mesh   17
       Max CFL number:  0.54E-02 at (  38,   8,   1)
       Max divergence: -0.36E-03 at (  38,   8,   2)
       Min divergence: -0.36E-03 at (  45,   5,  21)
       Max VN number:   0.39E-02 at (  17,   6,  19)
       Radiation Loss to Boundaries:        -0.004 kW
 
       Time Step       9   April 26, 2021  21:37:16
       Step Size:    0.713E-01 s, Total Time:       0.64 s
       Pressure Iterations:      1
       Maximum Velocity Error:  0.45E-01 on Mesh  13 at (  40  11  28)
       Maximum Pressure Error:  0.51E-02 on Mesh   5 at (   2   4  44)
       ---------------------------------------------------------------
       Mesh    1
       Max CFL number:  0.73E-02 at (  24,   7,   6)
       Max divergence: -0.31E-03 at (  74,  12,  12)
       Min divergence: -0.32E-03 at (  25,  31,   6)
       Max VN number:   0.40E-02 at (  60,  51,   7)
       Radiation Loss to Boundaries:        -0.011 kW
       Mesh    2
       Max CFL number:  0.68E-02 at (  26,   7,  11)
       Max divergence: -0.31E-03 at (  60,  15,  12)
       Min divergence: -0.32E-03 at (  62,  11,   1)
       Max VN number:   0.41E-02 at (   8,  48,   8)
       Radiation Loss to Boundaries:        -0.016 kW
       Mesh    3
       Max CFL number:  0.77E-02 at (  20,  11,   5)
       Max divergence: -0.31E-03 at (   3,   4,   8)
       Min divergence: -0.32E-03 at (  14,  84,  26)
       Max VN number:   0.40E-02 at (  17,  53,  14)
       Radiation Loss to Boundaries:        -0.093 kW
       Mesh    4
       Max CFL number:  0.55E-02 at (  14,  33,   6)
       Max divergence: -0.31E-03 at (  11,  72,  21)
       Min divergence: -0.32E-03 at (  17,   5,  42)
       Max VN number:   0.39E-02 at (   9,  65,  27)
       Radiation Loss to Boundaries:        -0.037 kW
       Mesh    5
       Max CFL number:  0.68E-02 at (  17,   5,  35)
       Max divergence: -0.31E-03 at (   8,  55,  10)
       Min divergence: -0.32E-03 at (  11,  18,  26)
       Max VN number:   0.41E-02 at (  17,  16,   8)
       Radiation Loss to Boundaries:        -0.035 kW
       Mesh    6
       Max CFL number:  0.56E-02 at (  16,   5,  28)
       Max divergence: -0.31E-03 at (   7,  45,  23)
       Min divergence: -0.32E-03 at (  10,  74,  38)
       Max VN number:   0.41E-02 at (   5,  62,  38)
       Radiation Loss to Boundaries:        -0.034 kW
       Mesh    7
       Max CFL number:  0.66E-02 at (   2,  11,  25)
       Max divergence: -0.31E-03 at (   7,  47,  12)
       Min divergence: -0.32E-03 at (   7,  85,  39)
       Max VN number:   0.39E-02 at (  13,  77,  10)
       Radiation Loss to Boundaries:        -0.036 kW
       Mesh    8
       Max CFL number:  0.55E-02 at (  12,  34,   9)
       Max divergence:  0.13E-05 at (   2,  55,  26)
       Min divergence: -0.32E-03 at (   7,  22,  32)
       Max VN number:   0.43E-02 at (   2,  55,  26)
       Radiation Loss to Boundaries:        -0.021 kW
       Mesh    9
       Max CFL number:  0.83E-02 at (   3,   7,   5)
       Max divergence: -0.31E-03 at (  18,   5,   6)
       Min divergence: -0.32E-03 at (   3,  29,  34)
       Max VN number:   0.40E-02 at (  11,  41,  23)
       Radiation Loss to Boundaries:        -0.078 kW
       Mesh   10
       Max CFL number:  0.56E-02 at (  18,   5,  28)
       Max divergence: -0.31E-03 at (  16,  14,  12)
       Min divergence: -0.32E-03 at (  11,   7,  27)
       Max VN number:   0.38E-02 at (  15,  25,  40)
       Radiation Loss to Boundaries:        -0.047 kW
       Mesh   11
       Max CFL number:  0.69E-02 at (  35,   8,   2)
       Max divergence: -0.31E-03 at (  16,  14,  20)
       Min divergence: -0.32E-03 at (  24,  12,   2)
       Max VN number:   0.42E-02 at (   8,   9,  10)
       Radiation Loss to Boundaries:        -0.007 kW
       Mesh   12
       Max CFL number:  0.66E-02 at (   4,   7,   2)
       Max divergence: -0.31E-03 at (  20,  55,   3)
       Min divergence: -0.32E-03 at (   1,   6,   3)
       Max VN number:   0.39E-02 at (  24,  49,  15)
       Radiation Loss to Boundaries:        -0.005 kW
       Mesh   13
       Max CFL number:  0.95E-02 at (  39,  12,  27)
       Max divergence: -0.31E-03 at (   7,  14,   2)
       Min divergence: -0.32E-03 at (  17,   7,  24)
       Max VN number:   0.39E-02 at (  25,  10,  24)
       Radiation Loss to Boundaries:        -0.004 kW
       Mesh   14
       Max CFL number:  0.59E-02 at (  35,  30,  20)
       Max divergence:  0.81E-06 at (   2,  35,  27)
       Min divergence: -0.31E-03 at (  38,  15,  21)
       Max VN number:   0.41E-02 at (  38,  13,  18)
       Radiation Loss to Boundaries:        -0.006 kW
       Mesh   15
       Max CFL number:  0.97E-02 at (   2,   6,  28)
       Max divergence: -0.31E-03 at (  13,   9,   2)
       Min divergence: -0.32E-03 at (  33,   7,  25)
       Max VN number:   0.39E-02 at (  34,  12,  20)
       Radiation Loss to Boundaries:        -0.004 kW
       Mesh   16
       Max CFL number:  0.60E-02 at (   6,  13,   7)
       Max divergence: -0.31E-03 at (  12,  20,   2)
       Min divergence: -0.31E-03 at (   2,  13,  19)
       Max VN number:   0.38E-02 at (   3,   5,  27)
       Radiation Loss to Boundaries:        -0.005 kW
       Mesh   17
       Max CFL number:  0.53E-02 at (  38,   8,   1)
       Max divergence: -0.31E-03 at (  38,   8,   2)
       Min divergence: -0.32E-03 at (  44,   5,  18)
       Max VN number:   0.39E-02 at (  17,   6,  19)
       Radiation Loss to Boundaries:        -0.005 kW
 
       Time Step      10   April 26, 2021  21:37:17
       Step Size:    0.713E-01 s, Total Time:       0.71 s
       Pressure Iterations:      1
       Maximum Velocity Error:  0.36E-01 on Mesh  13 at (  40  13  28)
       Maximum Pressure Error:  0.95E-02 on Mesh   3 at (   3   4   4)
       ---------------------------------------------------------------
       Mesh    1
       Max CFL number:  0.70E-02 at (  57,   7,  10)
       Max divergence: -0.26E-03 at (  74,  12,  12)
       Min divergence: -0.26E-03 at (  25,  31,   6)
       Max VN number:   0.40E-02 at (  60,  51,   7)
       Radiation Loss to Boundaries:        -0.009 kW
       Mesh    2
       Max CFL number:  0.68E-02 at (  57,  10,   2)
       Max divergence: -0.26E-03 at (  60,  15,  12)
       Min divergence: -0.26E-03 at (  73,  13,   1)
       Max VN number:   0.41E-02 at (   8,  48,   8)
       Radiation Loss to Boundaries:        -0.013 kW
       Mesh    3
       Max CFL number:  0.72E-02 at (  20,  11,   5)
       Max divergence: -0.26E-03 at (   3,   4,   8)
       Min divergence: -0.26E-03 at (  14,  84,  26)
       Max VN number:   0.40E-02 at (  17,  53,  14)
       Radiation Loss to Boundaries:        -0.066 kW
       Mesh    4
       Max CFL number:  0.55E-02 at (   3,  28,   9)
       Max divergence: -0.26E-03 at (  11,  72,  21)
       Min divergence: -0.26E-03 at (  17,   5,  42)
       Max VN number:   0.39E-02 at (   9,  65,  27)
       Radiation Loss to Boundaries:        -0.030 kW
       Mesh    5
       Max CFL number:  0.69E-02 at (   3,   8,  12)
       Max divergence: -0.26E-03 at (   9,  79,  12)
       Min divergence: -0.26E-03 at (  11,  18,  26)
       Max VN number:   0.40E-02 at (  17,  16,   8)
       Radiation Loss to Boundaries:        -0.030 kW
       Mesh    6
       Max CFL number:  0.56E-02 at (  16,   5,  28)
       Max divergence: -0.26E-03 at (   7,  45,  23)
       Min divergence: -0.26E-03 at (  10,  74,  38)
       Max VN number:   0.41E-02 at (   5,  62,  38)
       Radiation Loss to Boundaries:        -0.027 kW
       Mesh    7
       Max CFL number:  0.70E-02 at (   3,   8,  38)
       Max divergence: -0.26E-03 at (   7,  47,  12)
       Min divergence: -0.26E-03 at (   2,  79,  38)
       Max VN number:   0.39E-02 at (  13,  77,  10)
       Radiation Loss to Boundaries:        -0.028 kW
       Mesh    8
       Max CFL number:  0.55E-02 at (  12,  34,   9)
       Max divergence:  0.13E-05 at (   2,  55,  26)
       Min divergence: -0.26E-03 at (   7,  22,  32)
       Max VN number:   0.43E-02 at (   2,  55,  26)
       Radiation Loss to Boundaries:        -0.018 kW
       Mesh    9
       Max CFL number:  0.76E-02 at (  18,   5,   5)
       Max divergence: -0.26E-03 at (  18,   5,   6)
       Min divergence: -0.26E-03 at (   4,  83,  19)
       Max VN number:   0.40E-02 at (  11,  41,  23)
       Radiation Loss to Boundaries:        -0.050 kW
       Mesh   10
       Max CFL number:  0.55E-02 at (   3,  31,  34)
       Max divergence: -0.26E-03 at (  16,  14,  12)
       Min divergence: -0.26E-03 at (  11,   7,  27)
       Max VN number:   0.38E-02 at (  15,  25,  40)
       Radiation Loss to Boundaries:        -0.036 kW
       Mesh   11
       Max CFL number:  0.71E-02 at (  35,   8,   2)
       Max divergence: -0.26E-03 at (  46,   8,  16)
       Min divergence: -0.26E-03 at (  38,  14,   4)
       Max VN number:   0.42E-02 at (   8,   9,  10)
       Radiation Loss to Boundaries:        -0.007 kW
       Mesh   12
       Max CFL number:  0.66E-02 at (   4,   7,   2)
       Max divergence: -0.26E-03 at (  20,  55,   3)
       Min divergence: -0.26E-03 at (   1,   6,   3)
       Max VN number:   0.39E-02 at (  24,  49,  15)
       Radiation Loss to Boundaries:        -0.004 kW
       Mesh   13
       Max CFL number:  0.85E-02 at (  39,  12,  27)
       Max divergence: -0.26E-03 at (  30,   8,   2)
       Min divergence: -0.26E-03 at (   4,   6,  26)
       Max VN number:   0.39E-02 at (  25,  10,  24)
       Radiation Loss to Boundaries:        -0.004 kW
       Mesh   14
       Max CFL number:  0.58E-02 at (   5,   3,  25)
       Max divergence:  0.95E-06 at (   2,  35,  27)
       Min divergence: -0.26E-03 at (  38,  15,  21)
       Max VN number:   0.41E-02 at (  38,  13,  18)
       Radiation Loss to Boundaries:        -0.006 kW
       Mesh   15
       Max CFL number:  0.83E-02 at (  33,   6,  26)
       Max divergence: -0.26E-03 at (  34,  20,   3)
       Min divergence: -0.26E-03 at (  33,   7,  25)
       Max VN number:   0.39E-02 at (  34,  12,  20)
       Radiation Loss to Boundaries:        -0.004 kW
       Mesh   16
       Max CFL number:  0.59E-02 at (  11,  32,  10)
       Max divergence: -0.26E-03 at (  12,  20,   2)
       Min divergence: -0.26E-03 at (   2,  13,  19)
       Max VN number:   0.38E-02 at (   3,   5,  27)
       Radiation Loss to Boundaries:        -0.005 kW
       Mesh   17
       Max CFL number:  0.53E-02 at (  44,   5,  18)
       Max divergence: -0.26E-03 at (  38,   8,   2)
       Min divergence: -0.26E-03 at (  44,   5,  18)
       Max VN number:   0.38E-02 at (  17,   6,  19)
       Radiation Loss to Boundaries:        -0.003 kW
 
       Time Step      20   April 26, 2021  21:37:23
       Step Size:    0.713E-01 s, Total Time:       1.43 s
       Pressure Iterations:      1
       Maximum Velocity Error:  0.25E-01 on Mesh   7 at (  19  17  44)
       Maximum Pressure Error:  0.53E-02 on Mesh  13 at (   3   6  28)
       ---------------------------------------------------------------
       Mesh    1
       Max CFL number:  0.57E-02 at (   4,  18,  12)
       Max divergence: -0.20E-04 at (  61,  39,   8)
       Min divergence: -0.23E-04 at (   4,  18,  12)
       Max VN number:   0.40E-02 at (  60,  51,   7)
       Radiation Loss to Boundaries:        -0.005 kW
       Mesh    2
       Max CFL number:  0.58E-02 at (  46,  26,   7)
       Max divergence: -0.20E-04 at (  59,  18,   1)
       Min divergence: -0.23E-04 at (  53,   6,   1)
       Max VN number:   0.41E-02 at (   8,  48,   8)
       Radiation Loss to Boundaries:        -0.004 kW
       Mesh    3
       Max CFL number:  0.66E-02 at (  20,  21,  39)
       Max divergence: -0.20E-04 at (   3,  27,  27)
       Min divergence: -0.23E-04 at (  14,  84,  26)
       Max VN number:   0.39E-02 at (  17,  53,  14)
       Radiation Loss to Boundaries:        -0.023 kW
       Mesh    4
       Max CFL number:  0.55E-02 at (   3,  28,   9)
       Max divergence: -0.20E-04 at (  11,  72,  21)
       Min divergence: -0.23E-04 at (  18,   5,  31)
       Max VN number:   0.39E-02 at (   9,  65,  27)
       Radiation Loss to Boundaries:        -0.019 kW
       Mesh    5
       Max CFL number:  0.62E-02 at (   5,  20,  38)
       Max divergence: -0.20E-04 at (  17,  47,  39)
       Min divergence: -0.23E-04 at (  11,  18,  26)
       Max VN number:   0.42E-02 at (  17,  16,   8)
       Radiation Loss to Boundaries:        -0.012 kW
       Mesh    6
       Max CFL number:  0.54E-02 at (   7,  65,  18)
       Max divergence: -0.20E-04 at (   7,  45,  23)
       Min divergence: -0.23E-04 at (  10,  74,  38)
       Max VN number:   0.41E-02 at (   5,  62,  38)
       Radiation Loss to Boundaries:        -0.009 kW
       Mesh    7
       Max CFL number:  0.77E-02 at (   2,  21,  39)
       Max divergence: -0.20E-04 at (   4,  22,  40)
       Min divergence: -0.23E-04 at (  18,  16,  39)
       Max VN number:   0.38E-02 at (  13,  77,  10)
       Radiation Loss to Boundaries:        -0.011 kW
       Mesh    8
       Max CFL number:  0.54E-02 at (  12,  34,   9)
       Max divergence:  0.13E-05 at (   2,  55,  26)
       Min divergence: -0.23E-04 at (   7,  22,  32)
       Max VN number:   0.42E-02 at (   2,  55,  26)
       Radiation Loss to Boundaries:        -0.007 kW
       Mesh    9
       Max CFL number:  0.58E-02 at (   2,  13,  41)
       Max divergence: -0.20E-04 at (  11,  66,   5)
       Min divergence: -0.23E-04 at (   4,  83,  19)
       Max VN number:   0.40E-02 at (  11,  41,  23)
       Radiation Loss to Boundaries:        -0.024 kW
       Mesh   10
       Max CFL number:  0.54E-02 at (  12,   3,  21)
       Max divergence: -0.20E-04 at (  16,  14,  12)
       Min divergence: -0.23E-04 at (   8,   3,  14)
       Max VN number:   0.38E-02 at (  15,  25,  40)
       Radiation Loss to Boundaries:        -0.016 kW
       Mesh   11
       Max CFL number:  0.60E-02 at (  29,   8,  20)
       Max divergence: -0.20E-04 at (  10,  22,   2)
       Min divergence: -0.23E-04 at (  38,  50,   1)
       Max VN number:   0.41E-02 at (   8,   9,  10)
       Radiation Loss to Boundaries:        -0.002 kW
       Mesh   12
       Max CFL number:  0.58E-02 at (   4,  21,   7)
       Max divergence: -0.20E-04 at (  15,  35,  15)
       Min divergence: -0.23E-04 at (  12,  14,  14)
       Max VN number:   0.38E-02 at (  24,  49,  15)
       Radiation Loss to Boundaries:        -0.001 kW
       Mesh   13
       Max CFL number:  0.66E-02 at (  39,  17,   8)
       Max divergence: -0.20E-04 at (   7,  14,   2)
       Min divergence: -0.23E-04 at (  32,  30,  22)
       Max VN number:   0.39E-02 at (  25,  10,  24)
       Radiation Loss to Boundaries:        -0.001 kW
       Mesh   14
       Max CFL number:  0.54E-02 at (  39,  21,  27)
       Max divergence:  0.59E-06 at (   2,  35,  27)
       Min divergence: -0.23E-04 at (  38,  15,  21)
       Max VN number:   0.40E-02 at (  38,  13,  18)
       Radiation Loss to Boundaries:        -0.002 kW
       Mesh   15
       Max CFL number:  0.66E-02 at (   2,  27,  21)
       Max divergence: -0.20E-04 at (  13,   9,   2)
       Min divergence: -0.23E-04 at (  16,  20,  19)
       Max VN number:   0.39E-02 at (  34,  12,  20)
       Radiation Loss to Boundaries:        -0.002 kW
       Mesh   16
       Max CFL number:  0.56E-02 at (   3,  10,  11)
       Max divergence: -0.20E-04 at (  12,  20,   2)
       Min divergence: -0.23E-04 at (   2,  13,  19)
       Max VN number:   0.38E-02 at (   3,   5,  27)
       Radiation Loss to Boundaries:        -0.001 kW
       Mesh   17
       Max CFL number:  0.55E-02 at (  38,   8,   1)
       Max divergence: -0.20E-04 at (  38,   8,   2)
       Min divergence: -0.23E-04 at (  14,   6,  19)
       Max VN number:   0.38E-02 at (  17,   6,  19)
       Radiation Loss to Boundaries:        -0.001 kW
 
       Time Step      30   April 26, 2021  21:37:30
       Step Size:    0.713E-01 s, Total Time:       2.14 s
       Pressure Iterations:      1
       Maximum Velocity Error:  0.12E-01 on Mesh   5 at (  19  32  44)
       Maximum Pressure Error:  0.29E-02 on Mesh   5 at (  17   4  44)
       ---------------------------------------------------------------
       Mesh    1
       Max CFL number:  0.58E-02 at (   5,  39,   6)
       Max divergence:  0.55E-04 at (  23,  61,  11)
       Min divergence:  0.52E-04 at (  25,  31,   6)
       Max VN number:   0.39E-02 at (  60,  51,   7)
       Radiation Loss to Boundaries:        -0.002 kW
       Mesh    2
       Max CFL number:  0.55E-02 at (  32,  48,   8)
       Max divergence:  0.55E-04 at (  49,  35,   4)
       Min divergence:  0.52E-04 at (  60,  58,   3)
       Max VN number:   0.41E-02 at (   8,  48,   8)
       Radiation Loss to Boundaries:        -0.001 kW
       Mesh    3
       Max CFL number:  0.56E-02 at (   4,   7,  10)
       Max divergence:  0.55E-04 at (   8,  11,  42)
       Min divergence:  0.52E-04 at (   8,   9,  10)
       Max VN number:   0.39E-02 at (  17,  53,  14)
       Radiation Loss to Boundaries:        -0.008 kW
       Mesh    4
       Max CFL number:  0.54E-02 at (   4,  28,   9)
       Max divergence:  0.55E-04 at (  11,  72,  21)
       Min divergence:  0.53E-04 at (   7,  59,  16)
       Max VN number:   0.39E-02 at (   9,  65,  27)
       Radiation Loss to Boundaries:        -0.007 kW
       Mesh    5
       Max CFL number:  0.58E-02 at (  17,  27,  41)
       Max divergence:  0.55E-04 at (   5,  10,  43)
       Min divergence:  0.52E-04 at (  11,  18,  26)
       Max VN number:   0.40E-02 at (  17,  16,   8)
       Radiation Loss to Boundaries:        -0.008 kW
       Mesh    6
       Max CFL number:  0.55E-02 at (  13,  11,   5)
       Max divergence:  0.55E-04 at (   7,  45,  23)
       Min divergence:  0.53E-04 at (  10,  74,  38)
       Max VN number:   0.41E-02 at (   5,  62,  38)
       Radiation Loss to Boundaries:        -0.005 kW
       Mesh    7
       Max CFL number:  0.56E-02 at (  16,  17,  43)
       Max divergence:  0.55E-04 at (   3,  71,  22)
       Min divergence:  0.53E-04 at (  11,   9,  11)
       Max VN number:   0.38E-02 at (  13,  77,  10)
       Radiation Loss to Boundaries:        -0.008 kW
       Mesh    8
       Max CFL number:  0.55E-02 at (   2,  19,   3)
       Max divergence:  0.55E-04 at (  12,  26,  26)
       Min divergence: -0.11E-05 at (   2,  67,  16)
       Max VN number:   0.41E-02 at (   2,  55,  26)
       Radiation Loss to Boundaries:        -0.005 kW
       Mesh    9
       Max CFL number:  0.55E-02 at (   1,  63,  24)
       Max divergence:  0.55E-04 at (   9,  14,  42)
       Min divergence:  0.52E-04 at (   4,  83,  19)
       Max VN number:   0.40E-02 at (  11,  41,  23)
       Radiation Loss to Boundaries:        -0.009 kW
       Mesh   10
       Max CFL number:  0.53E-02 at (  12,   3,  20)
       Max divergence:  0.55E-04 at (   7,  12,  27)
       Min divergence:  0.53E-04 at (   8,   3,  14)
       Max VN number:   0.38E-02 at (  15,  25,  40)
       Radiation Loss to Boundaries:        -0.005 kW
       Mesh   11
       Max CFL number:  0.59E-02 at (  46,  39,   2)
       Max divergence:  0.55E-04 at (  32,  10,   5)
       Min divergence:  0.53E-04 at (  22,  50,   4)
       Max VN number:   0.41E-02 at (   8,   9,  10)
       Mesh   12
       Max CFL number:  0.59E-02 at (   6,  49,  20)
       Max divergence:  0.55E-04 at (  16,  57,  19)
       Min divergence:  0.52E-04 at (  12,  14,  14)
       Max VN number:   0.38E-02 at (  23,  22,  11)
       Mesh   13
       Max CFL number:  0.61E-02 at (  16,   8,  28)
       Max divergence:  0.55E-04 at (  15,   7,  17)
       Min divergence:  0.52E-04 at (  32,  30,  22)
       Max VN number:   0.38E-02 at (  25,  10,  24)
       Mesh   14
       Max CFL number:  0.54E-02 at (  30,   2,   2)
       Max divergence:  0.55E-04 at (   7,  24,   2)
       Min divergence: -0.82E-06 at (   2,  34,  25)
       Max VN number:   0.40E-02 at (  38,  13,  18)
       Mesh   15
       Max CFL number:  0.62E-02 at (  22,   7,  28)
       Max divergence:  0.55E-04 at (  27,   9,  25)
       Min divergence:  0.53E-04 at (  19,  11,   4)
       Max VN number:   0.38E-02 at (  34,  12,  20)
       Mesh   16
       Max CFL number:  0.53E-02 at (   7,  13,   7)
       Max divergence:  0.55E-04 at (  12,  20,   2)
       Min divergence:  0.53E-04 at (  22,  18,   9)
       Max VN number:   0.38E-02 at (   3,   5,  27)
       Mesh   17
       Max CFL number:  0.51E-02 at (  35,   4,   6)
       Max divergence:  0.55E-04 at (  35,   5,  18)
       Min divergence:  0.53E-04 at (  19,   9,   2)
       Max VN number:   0.38E-02 at (  17,   6,  19)
 
       Time Step      40   April 26, 2021  21:37:36
       Step Size:    0.713E-01 s, Total Time:       2.85 s
       Pressure Iterations:      1
       Maximum Velocity Error:  0.97E-02 on Mesh  14 at (  40  33  28)
       Maximum Pressure Error:  0.26E-02 on Mesh  13 at (   3   6  28)
       ---------------------------------------------------------------
       Mesh    1
       Max CFL number:  0.55E-02 at (  59,  12,   4)
       Max divergence:  0.74E-04 at (  23,  61,  11)
       Min divergence:  0.71E-04 at (  25,  31,   6)
       Max VN number:   0.39E-02 at (  60,  51,   7)
       Mesh    2
       Max CFL number:  0.53E-02 at (   5,  33,   9)
[...]
       Min divergence: -0.52E-04 at (  12,  14,  43)
       Max VN number:   0.22E-02 at (   3,  23,  41)
       Mesh    8
       Max CFL number:  0.44E-02 at (  12,   3,   4)
       Max divergence:  0.73E-06 at (   3,  59,  16)
       Min divergence: -0.52E-04 at (   6,  32,  43)
       Max VN number:   0.22E-02 at (   3,  50,  43)
       Mesh    9
       Max CFL number:  0.41E-02 at (  18,  37,  19)
       Max divergence: -0.51E-04 at (  18,   5,   7)
       Min divergence: -0.52E-04 at (  12,  17,  42)
       Max VN number:   0.21E-02 at (  17,  37,  39)
       Mesh   10
       Max CFL number:  0.38E-02 at (  11,  12,  44)
       Max divergence: -0.51E-04 at (  18,  34,  10)
       Min divergence: -0.52E-04 at (   7,  21,  43)
       Max VN number:   0.22E-02 at (  16,  34,  43)
       Mesh   11
       Max CFL number:  0.39E-02 at (   3,   9,  15)
       Max divergence: -0.50E-04 at (  41,  53,   2)
       Min divergence: -0.52E-04 at (  30,  47,   1)
       Max VN number:   0.22E-02 at (  27,  40,   9)
       Mesh   12
       Max CFL number:  0.41E-02 at (   3,  55,  21)
       Max divergence: -0.50E-04 at (  11,  64,   5)
       Min divergence: -0.52E-04 at (  26,  47,  14)
       Max VN number:   0.21E-02 at (  25,  36,  12)
       Mesh   13
       Max CFL number:  0.40E-02 at (  38,   6,  25)
       Max divergence: -0.50E-04 at (   3,  24,   2)
       Min divergence: -0.52E-04 at (  34,  29,  27)
       Max VN number:   0.22E-02 at (   4,  21,  27)
       Mesh   14
       Max CFL number:  0.41E-02 at (  33,  26,   1)
       Max divergence:  0.46E-06 at (   2,  35,  14)
       Min divergence: -0.52E-04 at (  17,  13,  27)
       Max VN number:   0.22E-02 at (  13,  32,  12)
       Mesh   15
       Max CFL number:  0.40E-02 at (  35,   6,  23)
       Max divergence: -0.51E-04 at (  35,  29,  23)
       Min divergence: -0.52E-04 at (   9,   6,  16)
       Max VN number:   0.21E-02 at (   8,  26,  27)
       Mesh   16
       Max CFL number:  0.38E-02 at (  18,   4,   1)
       Max divergence: -0.50E-04 at (  28,  19,   2)
       Min divergence: -0.52E-04 at (  35,  13,   6)
       Max VN number:   0.22E-02 at (  34,  20,  14)
       Mesh   17
       Max CFL number:  0.38E-02 at (  41,  10,  20)
       Max divergence: -0.51E-04 at (  46,  10,   5)
       Min divergence: -0.52E-04 at (   3,   8,   2)
       Max VN number:   0.20E-02 at (  42,   5,   4)
 
       Time Step    1200   April 26, 2021  21:49:40
       Step Size:    0.713E-01 s, Total Time:      85.54 s
       Pressure Iterations:      1
       Maximum Velocity Error:  0.51E-02 on Mesh  11 at (  49   6  11)
       Maximum Pressure Error:  0.25E-02 on Mesh   3 at (   3   4   4)
       ---------------------------------------------------------------
       Mesh    1
       Max CFL number:  0.39E-02 at (  28,  33,   4)
       Max divergence: -0.34E-04 at (  37,   6,  12)
       Min divergence: -0.36E-04 at (   3,  63,  12)
       Max VN number:   0.21E-02 at (  71,  56,   5)
       Mesh    2
       Max CFL number:  0.39E-02 at (  45,   6,  10)
       Max divergence: -0.34E-04 at (  42,  11,   1)
       Min divergence: -0.36E-04 at (  30,   6,   1)
       Max VN number:   0.21E-02 at (  73,  11,   5)
       Mesh    3
       Max CFL number:  0.55E-02 at (   9,  63,   4)
       Max divergence: -0.34E-04 at (   3,  27,  28)
       Min divergence: -0.35E-04 at (  16,   4,  13)
       Max VN number:   0.22E-02 at (   4,  51,  33)
       Mesh    4
       Max CFL number:  0.41E-02 at (   4,  12,  44)
       Max divergence: -0.34E-04 at (   9,  13,   5)
       Min divergence: -0.36E-04 at (   3,  71,  43)
       Max VN number:   0.22E-02 at (   4,  48,  34)
       Mesh    5
       Max CFL number:  0.37E-02 at (  14,  47,  44)
       Max divergence: -0.34E-04 at (  14,  47,  42)
       Min divergence: -0.35E-04 at (  15,  52,  42)
       Max VN number:   0.21E-02 at (  15,  46,  41)
       Mesh    6
       Max CFL number:  0.41E-02 at (  12,  40,  44)
       Max divergence: -0.34E-04 at (  12,  25,   1)
       Min divergence: -0.35E-04 at (  15,   5,  43)
       Max VN number:   0.22E-02 at (  13,   4,  43)
       Mesh    7
       Max CFL number:  0.37E-02 at (  10,  43,  44)
       Max divergence: -0.34E-04 at (  15,  82,   6)
       Min divergence: -0.35E-04 at (  12,  14,  43)
       Max VN number:   0.22E-02 at (   3,  23,  41)
       Mesh    8
       Max CFL number:  0.41E-02 at (  12,   3,   4)
       Max divergence:  0.68E-06 at (   3,  59,  16)
       Min divergence: -0.35E-04 at (   6,  32,  43)
       Max VN number:   0.21E-02 at (   3,  50,  43)
       Mesh    9
       Max CFL number:  0.39E-02 at (  18,  37,  19)
       Max divergence: -0.34E-04 at (  17,  68,   5)
       Min divergence: -0.35E-04 at (  13,   4,  34)
       Max VN number:   0.21E-02 at (  17,  37,  39)
       Mesh   10
       Max CFL number:  0.37E-02 at (  11,  12,  44)
       Max divergence: -0.34E-04 at (  18,  34,  10)
       Min divergence: -0.35E-04 at (   7,  21,  43)
       Max VN number:   0.21E-02 at (  17,   4,  43)
       Mesh   11
       Max CFL number:  0.37E-02 at (  31,  17,   1)
       Max divergence: -0.34E-04 at (  30,  54,  21)
       Min divergence: -0.35E-04 at (  43,   6,  12)
       Max VN number:   0.21E-02 at (  27,  40,   9)
       Mesh   12
       Max CFL number:  0.40E-02 at (   3,  55,  21)
       Max divergence: -0.34E-04 at (  11,  64,   5)
       Min divergence: -0.35E-04 at (  26,  47,  14)
       Max VN number:   0.20E-02 at (  25,  36,  12)
       Mesh   13
       Max CFL number:  0.38E-02 at (  21,  14,  28)
       Max divergence: -0.34E-04 at (   3,  24,   2)
       Min divergence: -0.35E-04 at (  34,  29,  27)
       Max VN number:   0.21E-02 at (  14,  18,   2)
       Mesh   14
       Max CFL number:  0.40E-02 at (  33,  26,   1)
       Max divergence:  0.42E-06 at (   2,  35,  14)
       Min divergence: -0.35E-04 at (  18,  31,  27)
       Max VN number:   0.21E-02 at (  13,  32,  12)
       Mesh   15
       Max CFL number:  0.40E-02 at (  35,   6,  28)
       Max divergence: -0.34E-04 at (  35,   6,  27)
       Min divergence: -0.35E-04 at (   9,   6,  16)
       Max VN number:   0.20E-02 at (   8,  26,  27)
       Mesh   16
       Max CFL number:  0.38E-02 at (  31,  22,  28)
       Max divergence: -0.34E-04 at (  28,  19,   2)
       Min divergence: -0.35E-04 at (  35,  13,   6)
       Max VN number:   0.21E-02 at (  34,  20,  14)
       Mesh   17
       Max CFL number:  0.37E-02 at (  41,  10,  20)
       Max divergence: -0.34E-04 at (  46,  10,   5)
       Min divergence: -0.35E-04 at (   3,   8,   2)
       Max VN number:   0.19E-02 at (  29,   9,   4)
 
       Time Step    1300   April 26, 2021  21:50:42
       Step Size:    0.713E-01 s, Total Time:      92.67 s
       Pressure Iterations:      1
       Maximum Velocity Error:  0.58E-02 on Mesh  13 at (  40   9  28)
       Maximum Pressure Error:  0.17E-02 on Mesh  13 at (   3   6  28)
       ---------------------------------------------------------------
       Mesh    1
       Max CFL number:  0.40E-02 at (   6,   8,   4)
       Max divergence:  0.58E-04 at (   3,  40,  12)
       Min divergence:  0.55E-04 at (  30,   6,  12)
       Max VN number:   0.19E-02 at (  71,  56,   5)
       Mesh    2
       Max CFL number:  0.36E-02 at (  44,   6,  10)
       Max divergence:  0.58E-04 at (  42,  11,   1)
       Min divergence:  0.56E-04 at (   3,  63,   1)
       Max VN number:   0.21E-02 at (  73,  44,   7)
       Mesh    3
       Max CFL number:  0.52E-02 at (   9,  62,   4)
       Max divergence:  0.58E-04 at (   3,   9,  31)
       Min divergence:  0.56E-04 at (  16,   4,  13)
       Max VN number:   0.21E-02 at (   4,  51,  33)
       Mesh    4
       Max CFL number:  0.40E-02 at (   4,  11,  44)
       Max divergence:  0.57E-04 at (   3,  57,  34)
       Min divergence:  0.56E-04 at (   3,  71,  43)
       Max VN number:   0.21E-02 at (   4,  48,  34)
       Mesh    5
       Max CFL number:  0.37E-02 at (  14,  46,  44)
       Max divergence:  0.58E-04 at (  14,  47,  42)
       Min divergence:  0.56E-04 at (  15,  52,  42)
       Max VN number:   0.20E-02 at (  15,  46,  41)
       Mesh    6
       Max CFL number:  0.39E-02 at (  12,  39,  44)
       Max divergence:  0.58E-04 at (  12,  25,   1)
       Min divergence:  0.56E-04 at (  11,  13,   1)
       Max VN number:   0.21E-02 at (  13,   4,  43)
       Mesh    7
       Max CFL number:  0.37E-02 at (  10,  44,  44)
       Max divergence:  0.57E-04 at (  15,  82,   6)
       Min divergence:  0.56E-04 at (  16,  60,   5)
       Max VN number:   0.21E-02 at (   3,  23,  41)
       Mesh    8
       Max CFL number:  0.39E-02 at (  11,   3,   4)
       Max divergence:  0.57E-04 at (   5,  34,  37)
       Min divergence: -0.60E-06 at (   4,  49,  40)
       Max VN number:   0.21E-02 at (   3,  50,  43)
       Mesh    9
       Max CFL number:  0.39E-02 at (  17,  17,   4)
       Max divergence:  0.58E-04 at (  18,  70,  39)
       Min divergence:  0.56E-04 at (  13,   4,  34)
       Max VN number:   0.20E-02 at (  17,  69,  43)
       Mesh   10
       Max CFL number:  0.37E-02 at (   9,  32,  44)
       Max divergence:  0.57E-04 at (  18,  34,  10)
       Min divergence:  0.56E-04 at (  11,   5,  42)
       Max VN number:   0.21E-02 at (  17,   4,  43)
       Mesh   11
       Max CFL number:  0.37E-02 at (   3,  10,  13)
       Max divergence:  0.57E-04 at (  30,  54,  21)
       Min divergence:  0.56E-04 at (  30,  47,   1)
       Max VN number:   0.20E-02 at (  27,  40,   9)
       Mesh   12
       Max CFL number:  0.37E-02 at (   4,  55,  21)
       Max divergence:  0.57E-04 at (  22,   6,   8)
       Min divergence:  0.56E-04 at (  26,  47,  14)
       Max VN number:   0.20E-02 at (   7,  34,   5)
       Mesh   13
       Max CFL number:  0.39E-02 at (  21,  15,  28)
       Max divergence:  0.57E-04 at (   3,  24,   2)
       Min divergence:  0.56E-04 at (  34,  29,  27)
       Max VN number:   0.20E-02 at (  14,  18,   2)
       Mesh   14
       Max CFL number:  0.39E-02 at (  34,  26,   1)
       Max divergence:  0.57E-04 at (  32,  20,  31)
       Min divergence: -0.52E-06 at (   2,  34,  24)
       Max VN number:   0.21E-02 at (  13,  32,  12)
       Mesh   15
       Max CFL number:  0.36E-02 at (  17,   6,  15)
       Max divergence:  0.57E-04 at (  35,  29,  23)
       Min divergence:  0.56E-04 at (   9,   6,  16)
       Max VN number:   0.20E-02 at (   8,  26,  27)
       Mesh   16
       Max CFL number:  0.38E-02 at (  22,   5,  28)
       Max divergence:  0.57E-04 at (   3,  10,   2)
       Min divergence:  0.56E-04 at (  35,  13,   6)
       Max VN number:   0.21E-02 at (  34,  20,  14)
       Mesh   17
       Max CFL number:  0.35E-02 at (  42,  10,  20)
       Max divergence:  0.57E-04 at (   6,   5,   2)
       Min divergence:  0.56E-04 at (   3,   8,   2)
       Max VN number:   0.19E-02 at (  18,   9,   6)
 
       Time Step    1400   April 26, 2021  21:51:45
       Step Size:    0.713E-01 s, Total Time:      99.80 s
       Pressure Iterations:      1
       Maximum Velocity Error:  0.48E-02 on Mesh  11 at (  49   6  11)
       Maximum Pressure Error:  0.23E-02 on Mesh   3 at (   3   4   4)
       ---------------------------------------------------------------
       Mesh    1
       Max CFL number:  0.36E-02 at (  60,  22,   4)
       Max divergence:  0.25E-04 at (  74,  10,  12)
       Min divergence:  0.22E-04 at (  30,   6,  12)
       Max VN number:   0.19E-02 at (  73,   7,   9)
       Mesh    2
       Max CFL number:  0.35E-02 at (  16,   6,   4)
       Max divergence:  0.25E-04 at (  37,   6,   1)
       Min divergence:  0.23E-04 at (   3,  63,   1)
       Max VN number:   0.21E-02 at (  73,  44,   7)
       Mesh    3
       Max CFL number:  0.48E-02 at (   9,  62,   4)
       Max divergence:  0.24E-04 at (   6,   4,   5)
       Min divergence:  0.23E-04 at (  16,   4,  13)
       Max VN number:   0.20E-02 at (   4,  51,  33)
       Mesh    4
       Max CFL number:  0.38E-02 at (   4,  12,  44)
       Max divergence:  0.24E-04 at (   3,  57,  34)
       Min divergence:  0.23E-04 at (   3,  71,  42)
       Max VN number:   0.20E-02 at (   4,  48,  34)
       Mesh    5
       Max CFL number:  0.36E-02 at (  14,  46,  44)
       Max divergence:  0.24E-04 at (  14,  47,  42)
       Min divergence:  0.23E-04 at (  15,  52,  42)
       Max VN number:   0.20E-02 at (  14,  59,   5)
       Mesh    6
       Max CFL number:  0.36E-02 at (  12,  39,  44)
       Max divergence:  0.24E-04 at (  12,  25,   1)
       Min divergence:  0.23E-04 at (  11,  13,   1)
       Max VN number:   0.20E-02 at (  13,   4,  43)
       Mesh    7
       Max CFL number:  0.37E-02 at (   1,  46,  44)
       Max divergence:  0.24E-04 at (   4,  18,   5)
       Min divergence:  0.23E-04 at (  16,  60,   5)
       Max VN number:   0.20E-02 at (   3,  23,  41)
       Mesh    8
       Max CFL number:  0.36E-02 at (  11,   3,   4)
       Max divergence:  0.24E-04 at (   5,  34,  37)
       Min divergence: -0.54E-06 at (   4,  49,  40)
       Max VN number:   0.21E-02 at (   3,  50,  43)
       Mesh    9
       Max CFL number:  0.39E-02 at (  17,  17,   4)
       Max divergence:  0.24E-04 at (  16,   4,  10)
       Min divergence:  0.23E-04 at (  13,   4,  34)
       Max VN number:   0.20E-02 at (  17,  69,  43)
       Mesh   10
       Max CFL number:  0.36E-02 at (   9,  32,  44)
       Max divergence:  0.24E-04 at (  18,  34,  10)
       Min divergence:  0.23E-04 at (  11,   5,  42)
       Max VN number:   0.20E-02 at (  17,   4,  43)
       Mesh   11
       Max CFL number:  0.34E-02 at (  16,  32,   1)
       Max divergence:  0.24E-04 at (  30,  54,  21)
       Min divergence:  0.23E-04 at (  25,  42,  21)
       Max VN number:   0.19E-02 at (  27,  40,   9)
       Mesh   12
       Max CFL number:  0.35E-02 at (   4,  55,  21)
       Max divergence:  0.24E-04 at (  22,   6,   8)
       Min divergence:  0.23E-04 at (  26,  47,  14)
       Max VN number:   0.20E-02 at (   7,  34,   5)
       Mesh   13
       Max CFL number:  0.35E-02 at (   3,  29,  19)
       Max divergence:  0.24E-04 at (   3,  24,   2)
       Min divergence:  0.23E-04 at (  16,   6,  27)
       Max VN number:   0.19E-02 at (  14,  18,   2)
       Mesh   14
       Max CFL number:  0.37E-02 at (   6,  33,  20)
       Max divergence:  0.24E-04 at (  13,  16,   2)
       Min divergence: -0.47E-06 at (   2,  34,  24)
       Max VN number:   0.20E-02 at (  13,  32,  12)
       Mesh   15
       Max CFL number:  0.34E-02 at (  17,   6,  15)
       Max divergence:  0.24E-04 at (  35,  29,  23)
       Min divergence:  0.23E-04 at (  34,   7,  27)
       Max VN number:   0.19E-02 at (   8,  26,  27)
       Mesh   16
       Max CFL number:  0.38E-02 at (  22,   5,  28)
       Max divergence:  0.24E-04 at (  28,  19,   2)
       Min divergence:  0.23E-04 at (  35,  13,   6)
       Max VN number:   0.20E-02 at (  34,  20,  14)
       Mesh   17
       Max CFL number:  0.34E-02 at (  42,  10,  20)
       Max divergence:  0.24E-04 at (   6,   5,   2)
       Min divergence:  0.23E-04 at (   3,   8,   2)
       Max VN number:   0.19E-02 at (  14,   9,  10)
 
       Time Step    1403   April 26, 2021  21:51:47
       Step Size:    0.609E-01 s, Total Time:     100.00 s
       Pressure Iterations:      1
       Maximum Velocity Error:  0.55E-02 on Mesh  13 at (  40   9  28)
       Maximum Pressure Error:  0.18E-02 on Mesh  13 at (   3   6  28)
       ---------------------------------------------------------------
       Mesh    1
       Max CFL number:  0.33E-02 at (   6,   8,   4)
       Max divergence:  0.60E-04 at (   3,  40,  12)
       Min divergence:  0.58E-04 at (  30,   6,  12)
       Max VN number:   0.16E-02 at (  73,   7,   9)
       Mesh    2
       Max CFL number:  0.30E-02 at (  16,   6,   4)
       Max divergence:  0.61E-04 at (  42,  11,   1)
       Min divergence:  0.58E-04 at (   3,  63,   1)
       Max VN number:   0.18E-02 at (  73,  44,   7)
       Mesh    3
       Max CFL number:  0.41E-02 at (   9,  62,   4)
       Max divergence:  0.60E-04 at (   3,   9,  31)
       Min divergence:  0.59E-04 at (  16,   4,  13)
       Max VN number:   0.17E-02 at (   4,  51,  33)
       Mesh    4
       Max CFL number:  0.33E-02 at (   4,  12,  44)
       Max divergence:  0.60E-04 at (   3,  57,  34)
       Min divergence:  0.59E-04 at (   3,  71,  42)
       Max VN number:   0.17E-02 at (   4,  48,  34)
       Mesh    5
       Max CFL number:  0.31E-02 at (  14,  46,  44)
       Max divergence:  0.60E-04 at (  14,  47,  42)
       Min divergence:  0.59E-04 at (  15,  52,  42)
       Max VN number:   0.17E-02 at (  14,  59,   5)
       Mesh    6
       Max CFL number:  0.31E-02 at (  12,  39,  44)
       Max divergence:  0.60E-04 at (  12,  25,   1)
       Min divergence:  0.59E-04 at (  11,  13,   1)
       Max VN number:   0.17E-02 at (  13,   4,  43)
       Mesh    7
       Max CFL number:  0.31E-02 at (  10,  44,  44)
       Max divergence:  0.60E-04 at (   4,  18,   5)
       Min divergence:  0.59E-04 at (  16,  60,   5)
       Max VN number:   0.17E-02 at (   3,  23,  41)
       Mesh    8
       Max CFL number:  0.31E-02 at (  11,   3,   4)
       Max divergence:  0.60E-04 at (   5,  34,  37)
       Min divergence: -0.54E-06 at (   4,  49,  40)
       Max VN number:   0.18E-02 at (   3,  50,  43)
       Mesh    9
       Max CFL number:  0.33E-02 at (  15,  36,   4)
       Max divergence:  0.60E-04 at (  18,  70,  39)
       Min divergence:  0.59E-04 at (  13,   4,  34)
       Max VN number:   0.17E-02 at (  17,  69,  43)
       Mesh   10
       Max CFL number:  0.31E-02 at (   9,  32,  44)
       Max divergence:  0.60E-04 at (   7,  34,  43)
       Min divergence:  0.59E-04 at (  11,   5,  42)
       Max VN number:   0.17E-02 at (  17,   4,  43)
       Mesh   11
       Max CFL number:  0.30E-02 at (   3,  10,  13)
       Max divergence:  0.60E-04 at (  30,  54,  21)
       Min divergence:  0.59E-04 at (  30,  47,   1)
       Max VN number:   0.16E-02 at (  27,  40,   9)
       Mesh   12
       Max CFL number:  0.30E-02 at (   4,  55,  21)
       Max divergence:  0.60E-04 at (  26,   7,   4)
       Min divergence:  0.59E-04 at (  25,  57,   2)
       Max VN number:   0.17E-02 at (   7,  34,   5)
       Mesh   13
       Max CFL number:  0.32E-02 at (  34,   6,  21)
       Max divergence:  0.60E-04 at (   3,  24,   2)
       Min divergence:  0.59E-04 at (  19,  29,  27)
       Max VN number:   0.16E-02 at (  14,  18,   2)
       Mesh   14
       Max CFL number:  0.31E-02 at (   6,  33,  20)
       Max divergence:  0.60E-04 at (  13,  16,   2)
       Min divergence: -0.48E-06 at (   2,  34,  24)
       Max VN number:   0.17E-02 at (  13,  32,  12)
       Mesh   15
       Max CFL number:  0.31E-02 at (  17,   6,  15)
       Max divergence:  0.60E-04 at (  35,  29,  23)
       Min divergence:  0.59E-04 at (   9,   6,  16)
       Max VN number:   0.16E-02 at (   8,  26,  27)
       Mesh   16
       Max CFL number:  0.32E-02 at (  22,   5,  28)
       Max divergence:  0.60E-04 at (  28,  19,   2)
       Min divergence:  0.59E-04 at (  35,  13,   6)
       Max VN number:   0.17E-02 at (  34,  20,  14)
       Mesh   17
       Max CFL number:  0.29E-02 at (  42,  10,  20)
       Max divergence:  0.60E-04 at (   6,   5,   2)
       Min divergence:  0.59E-04 at (   3,   8,   2)
       Max VN number:   0.16E-02 at (  14,   9,  10)
 


 Time Stepping Wall Clock Time (s):      877.347
 Total Elapsed Wall Clock Time (s):      885.753

STOP: FDS completed successfully (CHID: TEST_P)
